 xtb: 6.6.0 (2ccbbd7)
          12242303353D

 48 53  0     0  0            999 V2000
   42.8748   37.9233   10.1357 C   0  0  0  0  0  0  0  0  0  0  0  0
   42.9809   38.3263   11.4825 C   0  0  0  0  0  0  0  0  0  0  0  0
   43.8125   37.6878   12.3813 C   0  0  0  0  0  0  0  0  0  0  0  0
   44.5719   36.5859   11.9191 C   0  0  0  0  0  0  0  0  0  0  0  0
   45.5237   35.7221   12.5326 C   0  0  0  0  0  0  0  0  0  0  0  0
   45.9225   34.8396   11.5621 C   0  0  0  0  0  0  0  0  0  0  0  0
   45.2820   35.0929   10.3832 N   0  0  0  0  0  0  0  0  0  0  0  0
   44.4267   36.1789   10.5728 C   0  0  0  0  0  0  0  0  0  0  0  0
   43.5996   36.8330    9.6541 C   0  0  0  0  0  0  0  0  0  0  0  0
   47.0271   33.8506   11.7410 C   0  0  0  0  0  0  0  0  0  0  0  0
   47.3725   33.6534   13.1560 N   0  0  0  0  0  0  0  0  0  0  0  0
   48.1678   32.5553   13.3901 C   0  0  0  0  0  0  0  0  0  0  0  0
   48.5576   31.8674   12.4699 O   0  0  0  0  0  0  0  0  0  0  0  0
   48.5255   32.2174   14.8166 C   0  0  0  0  0  0  0  0  0  0  0  0
   48.1674   33.2125   15.7939 N   0  0  0  0  0  0  0  0  0  0  0  0
   47.2317   34.1713   15.5860 C   0  0  0  0  0  0  0  0  0  0  0  0
   46.8672   34.9323   16.4722 O   0  0  0  0  0  0  0  0  0  0  0  0
   46.5562   34.2406   14.2236 C   0  0  0  0  0  0  0  0  0  0  0  0
   46.1228   35.6783   13.8969 C   0  0  0  0  0  0  0  0  0  0  0  0
   48.7599   33.0840   17.1120 C   0  0  0  0  0  0  0  0  0  0  0  0
   48.2519   34.2820   10.9143 C   0  0  0  0  0  0  0  0  0  0  0  0
   48.7201   33.4565    9.8927 C   0  0  0  0  0  0  0  0  0  0  0  0
   49.8077   33.8362    9.0950 C   0  0  0  0  0  0  0  0  0  0  0  0
   50.3912   35.0383    9.3943 C   0  0  0  0  0  0  0  0  0  0  0  0
   51.4764   35.6543    8.7948 O   0  0  0  0  0  0  0  0  0  0  0  0
   51.8641   36.6739    9.6822 C   0  0  0  0  0  0  0  0  0  0  0  0
   50.6785   37.0118   10.4570 O   0  0  0  0  0  0  0  0  0  0  0  0
   49.9338   35.8710   10.4044 C   0  0  0  0  0  0  0  0  0  0  0  0
   48.8492   35.5133   11.1799 C   0  0  0  0  0  0  0  0  0  0  0  0
   52.6555   36.3367   10.3622 H   0  0  0  0  0  0  0  0  0  0  0  0
   52.1665   37.5533    9.1126 H   0  0  0  0  0  0  0  0  0  0  0  0
   48.4722   32.1284   17.5697 H   0  0  0  0  0  0  0  0  0  0  0  0
   49.8527   33.1361   17.0590 H   0  0  0  0  0  0  0  0  0  0  0  0
   48.3809   33.8938   17.7346 H   0  0  0  0  0  0  0  0  0  0  0  0
   48.0642   31.2473   15.0382 H   0  0  0  0  0  0  0  0  0  0  0  0
   49.6073   32.0557   14.8325 H   0  0  0  0  0  0  0  0  0  0  0  0
   46.9940   36.3389   13.9720 H   0  0  0  0  0  0  0  0  0  0  0  0
   45.4251   36.0061   14.6716 H   0  0  0  0  0  0  0  0  0  0  0  0
   45.3930   34.5527    9.5272 H   0  0  0  0  0  0  0  0  0  0  0  0
   43.5373   36.4938    8.6234 H   0  0  0  0  0  0  0  0  0  0  0  0
   42.2197   38.4818    9.4706 H   0  0  0  0  0  0  0  0  0  0  0  0
   48.2583   32.4863    9.7437 H   0  0  0  0  0  0  0  0  0  0  0  0
   50.1673   33.2160    8.2826 H   0  0  0  0  0  0  0  0  0  0  0  0
   48.4564   36.1508   11.9688 H   0  0  0  0  0  0  0  0  0  0  0  0
   42.3855   39.1671   11.8260 H   0  0  0  0  0  0  0  0  0  0  0  0
   46.6972   32.8837   11.3475 H   0  0  0  0  0  0  0  0  0  0  0  0
   45.6414   33.6418   14.3228 H   0  0  0  0  0  0  0  0  0  0  0  0
   43.8868   38.0168   13.4153 H   0  0  0  0  0  0  0  0  0  0  0  0
  1  2  4  0  0  0  0
  2  3  2  0  0  0  0
  3  4  4  0  0  0  0
  4  5  4  0  0  0  0
  5  6  2  0  0  0  0
  6  7  1  0  0  0  0
  4  8  4  0  0  0  0
  7  8  1  0  0  0  0
  1  9  4  0  0  0  0
  8  9  4  0  0  0  0
  6 10  1  0  0  0  0
 10 11  1  0  0  0  0
 11 12  4  0  0  0  0
 12 13  2  0  0  0  0
 12 14  1  0  0  0  0
 14 15  1  0  0  0  0
 15 16  4  0  0  0  0
 16 17  2  0  0  0  0
 11 18  1  0  0  0  0
 16 18  1  0  0  0  0
  5 19  1  0  0  0  0
 18 19  1  0  0  0  0
 15 20  1  0  0  0  0
 10 21  1  0  0  0  0
 21 22  4  0  0  0  0
 22 23  4  0  0  0  0
 23 24  4  0  0  0  0
 24 25  1  0  0  0  0
 25 26  1  0  0  0  0
 26 27  1  0  0  0  0
 24 28  4  0  0  0  0
 27 28  1  0  0  0  0
 21 29  4  0  0  0  0
 28 29  4  0  0  0  0
 26 30  1  0  0  0  0
 26 31  1  0  0  0  0
 20 32  1  0  0  0  0
 20 33  1  0  0  0  0
 20 34  1  0  0  0  0
 14 35  1  0  0  0  0
 14 36  1  0  0  0  0
 19 37  1  0  0  0  0
 19 38  1  0  0  0  0
  7 39  1  0  0  0  0
  9 40  1  0  0  0  0
  1 41  1  0  0  0  0
 22 42  1  0  0  0  0
 23 43  1  0  0  0  0
 29 44  1  0  0  0  0
  2 45  1  0  0  0  0
 10 46  1  0  0  0  0
 18 47  1  0  0  0  0
  3 48  1  0  0  0  0
M  END
