   58
Gau_xtb
C       10.378908256874    -30.033134251207    -30.414312278637
C       11.165897543507    -29.508902303483    -29.340896391394
C       11.532510619888    -28.144930995331    -29.252053265000
C       12.265848442660    -27.651390869815    -28.199816529281
C       12.718976265267    -28.482162639598    -27.144639443349
C       12.416640573511    -29.863050968968    -27.267069202159
C       11.653291288580    -30.345374933677    -28.304902466843
C       10.482050494296    -31.441846142579    -30.694349008789
C       11.734417494418    -32.086114758941    -30.696998058979
C       11.863143803681    -33.394711363109    -31.095798557677
C       10.741110412939    -34.196069200775    -31.429026111657
C        9.472178921625    -33.574854526072    -31.333049284750
C        9.370633594318    -32.241321710110    -31.019501902187
C        9.564486738268    -29.219007542622    -31.281262841023
C        9.379372444947    -29.582326968767    -32.645340289184
C        8.616853730076    -28.825343684294    -33.507132171199
C        7.924799890274    -27.658173470303    -33.057825228866
C        8.144466866082    -27.263627701911    -31.711893392012
C        8.924988952249    -28.015623216026    -30.868027031287
C       13.888907359456    -28.846455475813    -25.031031221252
C       13.467055139100    -26.540797089896    -25.878960062270
C        9.859786749518    -36.207368575510    -32.486464257751
C       12.120744532218    -36.219620196391    -31.517588918030
C        6.621529926490    -25.644276785382    -33.506224041134
C        6.833283001729    -27.403574561982    -35.229818505164
N       13.368718852023    -27.972200832901    -26.066705995780
N       10.924153606110    -35.475345182833    -31.836811961002
N        7.108465271531    -26.949985379342    -33.876968927813
H        7.677348952468    -27.226971789274    -35.900503383428
H        6.593544904476    -28.468060498583    -35.236884145673
H        5.964142499184    -26.872898263795    -35.613149012749
H        5.769161635153    -25.710884330175    -32.822875091959
H        7.406208012956    -25.053521012871    -33.032059417012
H        6.297267053156    -25.112674417127    -34.398338795331
H       12.754242617805    -36.358750616404    -32.394015281098
H       12.675230362119    -35.726263570889    -30.725588011037
H       11.817960330429    -37.196072986658    -31.139856740848
H        9.290550728555    -36.840192611049    -31.804429098671
H        9.164117099457    -35.520087376053    -32.962793152028
H       10.285837300177    -36.843971401321    -33.262175333572
H       13.958335514452    -26.046816144349    -26.715378522459
H       12.472148657506    -26.100094818183    -25.747165962786
H       14.034129019907    -26.334462715048    -24.974829627208
H       13.116411893867    -29.482256471566    -24.599487230198
H       14.674693496002    -29.480924101470    -25.454989931761
H       14.336492401665    -28.249458172853    -24.242238254490
H        8.973145525714    -27.730346745497    -29.828584776488
H        7.612686697815    -26.418454151092    -31.306849862865
H        8.540211624560    -29.132367156387    -34.536826675297
H        9.888589471590    -30.452134741359    -33.026453976609
H        8.404775504814    -31.805568488753    -30.864578861039
H        8.563621776245    -34.148046577319    -31.430921101793
H       12.852400564869    -33.785644841241    -31.257046049281
H       12.626668688625    -31.496419276506    -30.551079728479
H       11.431210752599    -31.400311139590    -28.328647008551
H       12.781719049782    -30.562907029330    -26.535257429497
H       12.427944924324    -26.587852383282    -28.153918465978
H       11.208264436555    -27.460782056099    -30.019729580243
