 xtb: 6.6.0 (2ccbbd7)
          12242302463D

 48 53  0     0  0            999 V2000
   42.8737   37.9249   10.1384 C   0  0  0  0  0  0  0  0  0  0  0  0
   42.9823   38.3224   11.4787 C   0  0  0  0  0  0  0  0  0  0  0  0
   43.8100   37.6859   12.3808 C   0  0  0  0  0  0  0  0  0  0  0  0
   44.5693   36.5874   11.9188 C   0  0  0  0  0  0  0  0  0  0  0  0
   45.5257   35.7287   12.5321 C   0  0  0  0  0  0  0  0  0  0  0  0
   45.9253   34.8462   11.5616 C   0  0  0  0  0  0  0  0  0  0  0  0
   45.2808   35.1003   10.3845 N   0  0  0  0  0  0  0  0  0  0  0  0
   44.4224   36.1794   10.5682 C   0  0  0  0  0  0  0  0  0  0  0  0
   43.5965   36.8362    9.6567 C   0  0  0  0  0  0  0  0  0  0  0  0
   47.0280   33.8455   11.7416 C   0  0  0  0  0  0  0  0  0  0  0  0
   47.3746   33.6463   13.1578 N   0  0  0  0  0  0  0  0  0  0  0  0
   48.1610   32.5607   13.3882 C   0  0  0  0  0  0  0  0  0  0  0  0
   48.5594   31.8809   12.4664 O   0  0  0  0  0  0  0  0  0  0  0  0
   48.5233   32.2235   14.8173 C   0  0  0  0  0  0  0  0  0  0  0  0
   48.1619   33.2153   15.7959 N   0  0  0  0  0  0  0  0  0  0  0  0
   47.2319   34.1698   15.5895 C   0  0  0  0  0  0  0  0  0  0  0  0
   46.8709   34.9287   16.4695 O   0  0  0  0  0  0  0  0  0  0  0  0
   46.5661   34.2372   14.2195 C   0  0  0  0  0  0  0  0  0  0  0  0
   46.1226   35.6780   13.8995 C   0  0  0  0  0  0  0  0  0  0  0  0
   48.7598   33.0829   17.1113 C   0  0  0  0  0  0  0  0  0  0  0  0
   48.2501   34.2808   10.9158 C   0  0  0  0  0  0  0  0  0  0  0  0
   48.7229   33.4576    9.8945 C   0  0  0  0  0  0  0  0  0  0  0  0
   49.8073   33.8347    9.0984 C   0  0  0  0  0  0  0  0  0  0  0  0
   50.3899   35.0356    9.3904 C   0  0  0  0  0  0  0  0  0  0  0  0
   51.4798   35.6523    8.8046 O   0  0  0  0  0  0  0  0  0  0  0  0
   51.8552   36.6741    9.6784 C   0  0  0  0  0  0  0  0  0  0  0  0
   50.6824   37.0090   10.4599 O   0  0  0  0  0  0  0  0  0  0  0  0
   49.9275   35.8711   10.4051 C   0  0  0  0  0  0  0  0  0  0  0  0
   48.8458   35.5142   11.1815 C   0  0  0  0  0  0  0  0  0  0  0  0
   52.6527   36.3376   10.3596 H   0  0  0  0  0  0  0  0  0  0  0  0
   52.1642   37.5545    9.1118 H   0  0  0  0  0  0  0  0  0  0  0  0
   48.4711   32.1288   17.5665 H   0  0  0  0  0  0  0  0  0  0  0  0
   49.8490   33.1357   17.0592 H   0  0  0  0  0  0  0  0  0  0  0  0
   48.3803   33.8934   17.7328 H   0  0  0  0  0  0  0  0  0  0  0  0
   48.0635   31.2481   15.0395 H   0  0  0  0  0  0  0  0  0  0  0  0
   49.6076   32.0582   14.8326 H   0  0  0  0  0  0  0  0  0  0  0  0
   46.9894   36.3384   13.9722 H   0  0  0  0  0  0  0  0  0  0  0  0
   45.4192   36.0012   14.6695 H   0  0  0  0  0  0  0  0  0  0  0  0
   45.3952   34.5517    9.5293 H   0  0  0  0  0  0  0  0  0  0  0  0
   43.5376   36.4937    8.6281 H   0  0  0  0  0  0  0  0  0  0  0  0
   42.2224   38.4755    9.4727 H   0  0  0  0  0  0  0  0  0  0  0  0
   48.2579   32.4929    9.7443 H   0  0  0  0  0  0  0  0  0  0  0  0
   50.1624   33.2215    8.2884 H   0  0  0  0  0  0  0  0  0  0  0  0
   48.4586   36.1486   11.9651 H   0  0  0  0  0  0  0  0  0  0  0  0
   42.3877   39.1612   11.8243 H   0  0  0  0  0  0  0  0  0  0  0  0
   46.6993   32.8772   11.3462 H   0  0  0  0  0  0  0  0  0  0  0  0
   45.6438   33.6474   14.3219 H   0  0  0  0  0  0  0  0  0  0  0  0
   43.8884   38.0135   13.4111 H   0  0  0  0  0  0  0  0  0  0  0  0
  1  2  4  0  0  0  0
  2  3  2  0  0  0  0
  3  4  4  0  0  0  0
  4  5  4  0  0  0  0
  5  6  2  0  0  0  0
  6  7  1  0  0  0  0
  4  8  4  0  0  0  0
  7  8  1  0  0  0  0
  1  9  4  0  0  0  0
  8  9  4  0  0  0  0
  6 10  1  0  0  0  0
 10 11  1  0  0  0  0
 11 12  4  0  0  0  0
 12 13  2  0  0  0  0
 12 14  1  0  0  0  0
 14 15  1  0  0  0  0
 15 16  4  0  0  0  0
 16 17  2  0  0  0  0
 11 18  1  0  0  0  0
 16 18  1  0  0  0  0
  5 19  1  0  0  0  0
 18 19  1  0  0  0  0
 15 20  1  0  0  0  0
 10 21  1  0  0  0  0
 21 22  4  0  0  0  0
 22 23  4  0  0  0  0
 23 24  4  0  0  0  0
 24 25  1  0  0  0  0
 25 26  1  0  0  0  0
 26 27  1  0  0  0  0
 24 28  4  0  0  0  0
 27 28  1  0  0  0  0
 21 29  4  0  0  0  0
 28 29  4  0  0  0  0
 26 30  1  0  0  0  0
 26 31  1  0  0  0  0
 20 32  1  0  0  0  0
 20 33  1  0  0  0  0
 20 34  1  0  0  0  0
 14 35  1  0  0  0  0
 14 36  1  0  0  0  0
 19 37  1  0  0  0  0
 19 38  1  0  0  0  0
  7 39  1  0  0  0  0
  9 40  1  0  0  0  0
  1 41  1  0  0  0  0
 22 42  1  0  0  0  0
 23 43  1  0  0  0  0
 29 44  1  0  0  0  0
  2 45  1  0  0  0  0
 10 46  1  0  0  0  0
 18 47  1  0  0  0  0
  3 48  1  0  0  0  0
M  END
