   36
Gau_xtb
C        5.753276954010     11.609727775445     23.559136285333
N        1.060282806299     11.124329400515     24.037606729765
O        4.234367994708     14.974289807561     25.393374337327
C        6.618122026245     12.630588268907     23.850332216288
N        2.236340540929     10.000756819662     25.573117740261
O        6.153809082833     10.463374062953     22.977178483455
C        6.165952093707     13.786066142056     24.491208252406
N       -1.651363448834     10.662305937268     26.517566838224
C        4.816827796623     13.879184848757     24.823235916299
N        0.471735033947      9.797798155057     27.227506719312
C        3.935802943224     12.851637604814     24.490638292365
N       -2.028115235945     11.494202977132     24.402382586014
C        4.371833164601     11.705119082309     23.854642726598
C        5.014226110828     16.017407962625     25.937969436516
C        3.448997458192     10.563980890192     23.504508241403
C        2.243636651454     10.521535537138     24.366908683461
C        0.204184214693     10.846209870502     25.087157815291
C        0.958352748964     10.179941802557     26.025739082832
C       -1.193549935889     10.989729750829     25.312385081498
C       -0.809238228233     10.074015464934     27.362347269015
C        7.535620702269     10.143538579937     22.955253511878
F       -1.311089854347      9.749707491596     28.555246634857
H        0.814508588613     11.416155561515     23.098264592169
H        7.663206291450     12.544015272677     23.594853407904
H        6.845716262623     14.591885810043     24.716682358631
H        2.894848928316     12.984245894356     24.739450190270
H       -3.031076518119     11.509349828222     24.595252919893
H       -1.743217455443     11.590283254046     23.438191266630
H        5.511943916644     16.564403331987     25.133728448642
H        4.318878660790     16.677955240158     26.440011252643
H        5.761735514619     15.649196256128     26.638329196914
H        3.979440246363      9.616605712019     23.612170739150
H        3.145131176326     10.629310024893     22.453503205771
H        7.979801224232     10.190402013309     23.948273463336
H        7.597301186708      9.120346606307     22.597014036098
H        8.073538170978     10.805827157595     22.272205122725
