 xtb: 6.6.0 (2ccbbd7)
          01022419223D

 36 38  0     0  0            999 V2000
    5.7533   11.6097   23.5591 C   0  0  0  0  0  0  0  0  0  0  0  0
    1.0603   11.1243   24.0376 N   0  0  0  0  0  0  0  0  0  0  0  0
    4.2344   14.9743   25.3934 O   0  0  0  0  0  0  0  0  0  0  0  0
    6.6181   12.6306   23.8503 C   0  0  0  0  0  0  0  0  0  0  0  0
    2.2363   10.0008   25.5731 N   0  0  0  0  0  0  0  0  0  0  0  0
    6.1538   10.4634   22.9772 O   0  0  0  0  0  0  0  0  0  0  0  0
    6.1660   13.7861   24.4912 C   0  0  0  0  0  0  0  0  0  0  0  0
   -1.6514   10.6623   26.5176 N   0  0  0  0  0  0  0  0  0  0  0  0
    4.8168   13.8792   24.8232 C   0  0  0  0  0  0  0  0  0  0  0  0
    0.4717    9.7978   27.2275 N   0  0  0  0  0  0  0  0  0  0  0  0
    3.9358   12.8516   24.4906 C   0  0  0  0  0  0  0  0  0  0  0  0
   -2.0281   11.4942   24.4024 N   0  0  0  0  0  0  0  0  0  0  0  0
    4.3718   11.7051   23.8546 C   0  0  0  0  0  0  0  0  0  0  0  0
    5.0142   16.0174   25.9380 C   0  0  0  0  0  0  0  0  0  0  0  0
    3.4490   10.5640   23.5045 C   0  0  0  0  0  0  0  0  0  0  0  0
    2.2436   10.5215   24.3669 C   0  0  0  0  0  0  0  0  0  0  0  0
    0.2042   10.8462   25.0872 C   0  0  0  0  0  0  0  0  0  0  0  0
    0.9584   10.1799   26.0257 C   0  0  0  0  0  0  0  0  0  0  0  0
   -1.1935   10.9897   25.3124 C   0  0  0  0  0  0  0  0  0  0  0  0
   -0.8092   10.0740   27.3623 C   0  0  0  0  0  0  0  0  0  0  0  0
    7.5356   10.1435   22.9553 C   0  0  0  0  0  0  0  0  0  0  0  0
   -1.3111    9.7497   28.5552 F   0  0  0  0  0  0  0  0  0  0  0  0
    0.8145   11.4162   23.0983 H   0  0  0  0  0  0  0  0  0  0  0  0
    7.6632   12.5440   23.5949 H   0  0  0  0  0  0  0  0  0  0  0  0
    6.8457   14.5919   24.7167 H   0  0  0  0  0  0  0  0  0  0  0  0
    2.8948   12.9842   24.7395 H   0  0  0  0  0  0  0  0  0  0  0  0
   -3.0311   11.5093   24.5953 H   0  0  0  0  0  0  0  0  0  0  0  0
   -1.7432   11.5903   23.4382 H   0  0  0  0  0  0  0  0  0  0  0  0
    5.5119   16.5644   25.1337 H   0  0  0  0  0  0  0  0  0  0  0  0
    4.3189   16.6780   26.4400 H   0  0  0  0  0  0  0  0  0  0  0  0
    5.7617   15.6492   26.6383 H   0  0  0  0  0  0  0  0  0  0  0  0
    3.9794    9.6166   23.6122 H   0  0  0  0  0  0  0  0  0  0  0  0
    3.1451   10.6293   22.4535 H   0  0  0  0  0  0  0  0  0  0  0  0
    7.9798   10.1904   23.9483 H   0  0  0  0  0  0  0  0  0  0  0  0
    7.5973    9.1203   22.5970 H   0  0  0  0  0  0  0  0  0  0  0  0
    8.0735   10.8058   22.2722 H   0  0  0  0  0  0  0  0  0  0  0  0
  1  4  4  0  0  0  0
  1  6  1  0  0  0  0
  4  7  4  0  0  0  0
  3  9  1  0  0  0  0
  7  9  4  0  0  0  0
  9 11  4  0  0  0  0
  1 13  4  0  0  0  0
 11 13  4  0  0  0  0
  3 14  1  0  0  0  0
 13 15  1  0  0  0  0
  2 16  4  0  0  0  0
  5 16  2  0  0  0  0
 15 16  1  0  0  0  0
  2 17  1  0  0  0  0
  5 18  4  0  0  0  0
 10 18  4  0  0  0  0
 17 18  4  0  0  0  0
  8 19  4  0  0  0  0
 12 19  4  0  0  0  0
 17 19  4  0  0  0  0
  8 20  4  0  0  0  0
 10 20  4  0  0  0  0
  6 21  1  0  0  0  0
 20 22  1  0  0  0  0
  2 23  1  0  0  0  0
  4 24  1  0  0  0  0
  7 25  1  0  0  0  0
 11 26  1  0  0  0  0
 12 27  1  0  0  0  0
 12 28  1  0  0  0  0
 14 29  1  0  0  0  0
 14 30  1  0  0  0  0
 14 31  1  0  0  0  0
 15 32  1  0  0  0  0
 15 33  1  0  0  0  0
 21 34  1  0  0  0  0
 21 35  1  0  0  0  0
 21 36  1  0  0  0  0
M  END
