   34
Gau_xtb
C       50.071719693199     48.357784999863     31.254457399095
O       50.705978138841     48.881535337553     30.116240477188
C       50.545038407259     46.888618804141     31.509138647422
N       50.527002975962     46.210290835328     30.178062851637
C       51.998430041847     46.769348325558     32.098926259863
O       51.931188187008     46.078913245874     33.323413727978
C       52.854385823442     46.004033620486     30.984377089660
O       53.320808097006     44.732897399013     31.305100842739
C       51.932477477101     45.906570893472     29.717942388526
N       55.755451942205     47.621514896881     26.545325460222
C       55.853617679269     46.956691149040     27.710863524095
N       54.868120708352     46.651226817058     28.474859249073
C       53.628832299172     46.967390059809     27.991485074288
C       53.458337856903     47.666624420127     26.792170137985
C       54.565707996590     48.103628421574     25.982169609697
O       54.577460797436     48.811731612530     24.999256268966
N       52.122722300791     47.852657043514     26.588114513301
C       51.436216021389     47.308155904331     27.618506397449
C       52.316335954724     46.742232193607     28.526315562775
H       50.092157584670     46.838556460539     29.494764452466
H       56.582434631716     47.967408531772     26.026636172897
H       49.997801787880     45.334866932332     30.248547396709
H       51.753408434215     48.492076249527     25.892211723223
H       52.587054134205     44.193257120181     31.705596451559
H       51.816148688730     46.646703996733     34.092659463334
H       51.663891797773     48.803192011915     30.235234145751
H       56.831929729669     46.633560295787     28.029569547029
H       50.367716134499     47.383035649720     27.627971188130
H       51.965838239501     44.854359997754     29.409914736360
H       53.747814837734     46.584187742234     30.738678461979
H       52.431673133024     47.762362687016     32.241883140150
H       49.860939288031     46.383901147821     32.201905907274
H       48.996431175821     48.359627129996     31.061852125234
H       50.255880336452     48.948034382338     32.159740454239
