 xtb: 6.6.0 (2ccbbd7)
          01092412553D

 34 36  0     0  0            999 V2000
   50.0717   48.3578   31.2545 C   0  0  0  0  0  0  0  0  0  0  0  0
   50.7060   48.8815   30.1162 O   0  0  0  0  0  0  0  0  0  0  0  0
   50.5450   46.8886   31.5091 C   0  0  0  0  0  0  0  0  0  0  0  0
   50.5270   46.2103   30.1781 N   0  0  0  0  0  0  0  0  0  0  0  0
   51.9984   46.7693   32.0989 C   0  0  0  0  0  0  0  0  0  0  0  0
   51.9312   46.0789   33.3234 O   0  0  0  0  0  0  0  0  0  0  0  0
   52.8544   46.0040   30.9844 C   0  0  0  0  0  0  0  0  0  0  0  0
   53.3208   44.7329   31.3051 O   0  0  0  0  0  0  0  0  0  0  0  0
   51.9325   45.9066   29.7179 C   0  0  0  0  0  0  0  0  0  0  0  0
   55.7555   47.6215   26.5453 N   0  0  0  0  0  0  0  0  0  0  0  0
   55.8536   46.9567   27.7109 C   0  0  0  0  0  0  0  0  0  0  0  0
   54.8681   46.6512   28.4749 N   0  0  0  0  0  0  0  0  0  0  0  0
   53.6288   46.9674   27.9915 C   0  0  0  0  0  0  0  0  0  0  0  0
   53.4583   47.6666   26.7922 C   0  0  0  0  0  0  0  0  0  0  0  0
   54.5657   48.1036   25.9822 C   0  0  0  0  0  0  0  0  0  0  0  0
   54.5775   48.8117   24.9993 O   0  0  0  0  0  0  0  0  0  0  0  0
   52.1227   47.8527   26.5881 N   0  0  0  0  0  0  0  0  0  0  0  0
   51.4362   47.3082   27.6185 C   0  0  0  0  0  0  0  0  0  0  0  0
   52.3163   46.7422   28.5263 C   0  0  0  0  0  0  0  0  0  0  0  0
   50.0922   46.8386   29.4948 H   0  0  0  0  0  0  0  0  0  0  0  0
   56.5824   47.9674   26.0266 H   0  0  0  0  0  0  0  0  0  0  0  0
   49.9978   45.3349   30.2485 H   0  0  0  0  0  0  0  0  0  0  0  0
   51.7534   48.4921   25.8922 H   0  0  0  0  0  0  0  0  0  0  0  0
   52.5871   44.1933   31.7056 H   0  0  0  0  0  0  0  0  0  0  0  0
   51.8161   46.6467   34.0927 H   0  0  0  0  0  0  0  0  0  0  0  0
   51.6639   48.8032   30.2352 H   0  0  0  0  0  0  0  0  0  0  0  0
   56.8319   46.6336   28.0296 H   0  0  0  0  0  0  0  0  0  0  0  0
   50.3677   47.3830   27.6280 H   0  0  0  0  0  0  0  0  0  0  0  0
   51.9658   44.8544   29.4099 H   0  0  0  0  0  0  0  0  0  0  0  0
   53.7478   46.5842   30.7387 H   0  0  0  0  0  0  0  0  0  0  0  0
   52.4317   47.7624   32.2419 H   0  0  0  0  0  0  0  0  0  0  0  0
   49.8609   46.3839   32.2019 H   0  0  0  0  0  0  0  0  0  0  0  0
   48.9964   48.3596   31.0619 H   0  0  0  0  0  0  0  0  0  0  0  0
   50.2559   48.9480   32.1597 H   0  0  0  0  0  0  0  0  0  0  0  0
  1  2  1  0  0  0  0
  1  3  1  0  0  0  0
  3  4  1  0  0  0  0
  3  5  1  0  0  0  0
  5  6  1  0  0  0  0
  5  7  1  0  0  0  0
  7  8  1  0  0  0  0
  4  9  1  0  0  0  0
  7  9  1  0  0  0  0
 10 11  4  0  0  0  0
 11 12  2  0  0  0  0
 12 13  1  0  0  0  0
 13 14  4  0  0  0  0
 10 15  1  0  0  0  0
 14 15  1  0  0  0  0
 15 16  2  0  0  0  0
 14 17  4  0  0  0  0
 17 18  4  0  0  0  0
  9 19  1  0  0  0  0
 13 19  4  0  0  0  0
 18 19  4  0  0  0  0
  4 20  1  0  0  0  0
 10 21  1  0  0  0  0
  4 22  1  0  0  0  0
 17 23  1  0  0  0  0
  8 24  1  0  0  0  0
  6 25  1  0  0  0  0
  2 26  1  0  0  0  0
 11 27  1  0  0  0  0
 18 28  1  0  0  0  0
  9 29  1  0  0  0  0
  7 30  1  0  0  0  0
  5 31  1  0  0  0  0
  3 32  1  0  0  0  0
  1 33  1  0  0  0  0
  1 34  1  0  0  0  0
M  CHG  1   1   1
M  END
