   42
Gau_xtb
C        8.775786961512     -5.698511240069     -3.661657033496
H        8.458674778693     -5.418850609945     -2.665703181826
C        8.020568857166     -5.261187828599     -4.734227740679
H        7.143191544030     -4.644870124248     -4.590173390313
C        8.454502268393     -5.549751619364     -6.023683753469
Cl       7.425674224357     -4.940451245519     -7.273732393423
C        9.634351153295     -6.276584531668     -6.276747151680
H        9.929893404563     -6.481380506405     -7.300512475350
C       10.371497636341     -6.729914214290     -5.166951271818
H       11.276633681475     -7.318294316630     -5.289092780607
C        9.934690464908     -6.453198294377     -3.851657797168
C       10.686072148978     -6.935007679048     -2.652526920878
N       11.942300609377     -7.086914379980     -2.784177510351
C        9.890919981758     -7.050913307389     -1.384929989661
C        8.569136906642     -7.529556281833     -1.456176074788
H        8.231723242361     -7.984696284585     -2.382421201441
C        7.692703473573     -7.431785414797     -0.377726017181
H        6.696540701888     -7.851787725021     -0.454032802673
C        8.123612734581     -6.837942842064      0.827591099554
H        7.455910836533     -6.780099807901      1.678396270778
C        9.428293998467     -6.366143618112      0.909269625432
H        9.783456654025     -5.902134284722      1.823858891246
C       10.333162933582     -6.435122133076     -0.179870492944
C       11.691010831294     -5.880682273179     -0.066861944811
C       12.244662681135     -4.746459461559      0.596737932942
C       11.581707043428     -3.655032533019      1.407143041259
H       11.274734281338     -4.012053838710      2.393427112233
H       10.704138920278     -3.252138844027      0.899174474705
H       12.307132625631     -2.853686305353      1.567799432820
N       13.540367494375     -4.668748275967      0.400805988842
O       13.876702498578     -5.710044700899     -0.466620373578
C       12.763337678460     -6.389284219778     -0.733524982785
C       12.732831016264     -7.561651104142     -1.672197710333
H       12.209928928636     -8.391600503866     -1.171460124299
C       14.092535144110     -8.044426788883     -2.130752603331
H       14.643163193733     -8.470611419552     -1.288478282720
H       14.686586576858     -7.208209158708     -2.513649470884
C       13.930507402450     -9.104937435198     -3.234502472757
O       12.909373258968     -9.767140932851     -3.390003293947
N       15.046233272739     -9.269206237019     -3.981231966492
H       15.023850701128     -9.911414833233     -4.758418202419
H       15.833459339388     -8.631669581141     -3.926065422523
