
  xtb     05021900503D
 xtb: 6.4.1 (23d549d)
 42 45  0     0  0            999 V2000
    8.7758   -5.6985   -3.6617 C   0  0  0  0  0  0  0  0  0  0  0  0
    8.4587   -5.4189   -2.6657 H   0  0  0  0  0  0  0  0  0  0  0  0
    8.0206   -5.2612   -4.7342 C   0  0  0  0  0  0  0  0  0  0  0  0
    7.1432   -4.6449   -4.5902 H   0  0  0  0  0  0  0  0  0  0  0  0
    8.4545   -5.5498   -6.0237 C   0  0  0  0  0  0  0  0  0  0  0  0
    7.4257   -4.9405   -7.2737 Cl  0  0  0  0  0  0  0  0  0  0  0  0
    9.6344   -6.2766   -6.2767 C   0  0  0  0  0  0  0  0  0  0  0  0
    9.9299   -6.4814   -7.3005 H   0  0  0  0  0  0  0  0  0  0  0  0
   10.3715   -6.7299   -5.1670 C   0  0  0  0  0  0  0  0  0  0  0  0
   11.2766   -7.3183   -5.2891 H   0  0  0  0  0  0  0  0  0  0  0  0
    9.9347   -6.4532   -3.8517 C   0  0  0  0  0  0  0  0  0  0  0  0
   10.6861   -6.9350   -2.6525 C   0  0  0  0  0  0  0  0  0  0  0  0
   11.9423   -7.0869   -2.7842 N   0  0  0  0  0  0  0  0  0  0  0  0
    9.8909   -7.0509   -1.3849 C   0  0  0  0  0  0  0  0  0  0  0  0
    8.5691   -7.5296   -1.4562 C   0  0  0  0  0  0  0  0  0  0  0  0
    8.2317   -7.9847   -2.3824 H   0  0  0  0  0  0  0  0  0  0  0  0
    7.6927   -7.4318   -0.3777 C   0  0  0  0  0  0  0  0  0  0  0  0
    6.6965   -7.8518   -0.4540 H   0  0  0  0  0  0  0  0  0  0  0  0
    8.1236   -6.8379    0.8276 C   0  0  0  0  0  0  0  0  0  0  0  0
    7.4559   -6.7801    1.6784 H   0  0  0  0  0  0  0  0  0  0  0  0
    9.4283   -6.3661    0.9093 C   0  0  0  0  0  0  0  0  0  0  0  0
    9.7835   -5.9021    1.8239 H   0  0  0  0  0  0  0  0  0  0  0  0
   10.3332   -6.4351   -0.1799 C   0  0  0  0  0  0  0  0  0  0  0  0
   11.6910   -5.8807   -0.0669 C   0  0  0  0  0  0  0  0  0  0  0  0
   12.2447   -4.7465    0.5967 C   0  0  0  0  0  0  0  0  0  0  0  0
   11.5817   -3.6550    1.4071 C   0  0  0  0  0  0  0  0  0  0  0  0
   11.2747   -4.0121    2.3934 H   0  0  0  0  0  0  0  0  0  0  0  0
   10.7041   -3.2521    0.8992 H   0  0  0  0  0  0  0  0  0  0  0  0
   12.3071   -2.8537    1.5678 H   0  0  0  0  0  0  0  0  0  0  0  0
   13.5404   -4.6687    0.4008 N   0  0  0  0  0  0  0  0  0  0  0  0
   13.8767   -5.7100   -0.4666 O   0  0  0  0  0  0  0  0  0  0  0  0
   12.7633   -6.3893   -0.7335 C   0  0  0  0  0  0  0  0  0  0  0  0
   12.7328   -7.5617   -1.6722 C   0  0  0  0  0  0  0  0  0  0  0  0
   12.2099   -8.3916   -1.1715 H   0  0  0  0  0  0  0  0  0  0  0  0
   14.0925   -8.0444   -2.1308 C   0  0  0  0  0  0  0  0  0  0  0  0
   14.6432   -8.4706   -1.2885 H   0  0  0  0  0  0  0  0  0  0  0  0
   14.6866   -7.2082   -2.5136 H   0  0  0  0  0  0  0  0  0  0  0  0
   13.9305   -9.1049   -3.2345 C   0  0  0  0  0  0  0  0  0  0  0  0
   12.9094   -9.7671   -3.3900 O   0  0  0  0  0  0  0  0  0  0  0  0
   15.0462   -9.2692   -3.9812 N   0  0  0  0  0  0  0  0  0  0  0  0
   15.0239   -9.9114   -4.7584 H   0  0  0  0  0  0  0  0  0  0  0  0
   15.8335   -8.6317   -3.9261 H   0  0  0  0  0  0  0  0  0  0  0  0
  1  2  1  0  0  0  0
  1  3  4  0  0  0  0
  3  4  1  0  0  0  0
  3  5  4  0  0  0  0
  5  6  1  0  0  0  0
  5  7  4  0  0  0  0
  7  8  1  0  0  0  0
  7  9  4  0  0  0  0
  9 10  1  0  0  0  0
  1 11  4  0  0  0  0
  9 11  4  0  0  0  0
 11 12  1  0  0  0  0
 12 13  2  0  0  0  0
 12 14  1  0  0  0  0
 14 15  4  0  0  0  0
 15 16  1  0  0  0  0
 15 17  4  0  0  0  0
 17 18  1  0  0  0  0
 17 19  4  0  0  0  0
 19 20  1  0  0  0  0
 19 21  4  0  0  0  0
 21 22  1  0  0  0  0
 14 23  4  0  0  0  0
 21 23  4  0  0  0  0
 23 24  1  0  0  0  0
 24 25  4  0  0  0  0
 25 26  1  0  0  0  0
 26 27  1  0  0  0  0
 26 28  1  0  0  0  0
 26 29  1  0  0  0  0
 25 30  2  0  0  0  0
 30 31  1  0  0  0  0
 24 32  4  0  0  0  0
 31 32  1  0  0  0  0
 13 33  1  0  0  0  0
 32 33  1  0  0  0  0
 33 34  1  0  0  0  0
 33 35  1  0  0  0  0
 35 36  1  0  0  0  0
 35 37  1  0  0  0  0
 35 38  1  0  0  0  0
 38 39  2  0  0  0  0
 38 40  4  0  0  0  0
 40 41  1  0  0  0  0
 40 42  1  0  0  0  0
M  END
