   36
Gau_xtb
C        5.747118463567     11.634746597245     23.566908635893
N        1.076271307449     11.127052860711     24.051471400762
O        4.233704054661     15.015671670539     25.393900727365
C        6.613847915938     12.654846660652     23.877833448267
N        2.239635031166      9.995349089273     25.597003691980
O        6.139841791828     10.487662514700     22.989387494334
C        6.152959612772     13.803722203326     24.516591544233
N       -1.644836428364     10.653943176666     26.517275488203
C        4.798964555337     13.905366100641     24.840604507549
N        0.479189544483      9.787779164336     27.240126050220
C        3.918358261968     12.868954176060     24.513567484015
N       -2.030808866139     11.505660827956     24.412519316743
C        4.361301423843     11.737438154635     23.859782276968
C        5.018219491115     16.015544102491     25.994950960617
C        3.463744119254     10.573154140852     23.530057773241
C        2.258650892534     10.524428687346     24.388940795047
C        0.210648185158     10.860215191509     25.093471375745
C        0.956591718837     10.183437992808     26.039058993791
C       -1.189673335610     11.002753861766     25.318356911928
C       -0.800556407608     10.069132414583     27.370851329627
C        7.506830410197     10.143583329940     22.979550513626
F       -1.305891033973      9.749285651566     28.566023395633
H        0.850221041182     11.438775323143     23.109206192956
H        7.664408051536     12.573386624790     23.630838080493
H        6.836071811929     14.610585191389     24.749021050958
H        2.874110576823     12.969775693315     24.788782223820
H       -3.034908488395     11.525202699362     24.615143951324
H       -1.764547236978     11.639123407560     23.447740617317
H        5.553507619635     16.594877174180     25.230359215596
H        4.325434081262     16.673231829818     26.517699568234
H        5.743518963308     15.598534452483     26.704237031658
H        4.003525778097      9.632257143144     23.663843142868
H        3.157886457244     10.607975443358     22.474931257313
H        7.943862421647     10.206546474471     23.981032415694
H        7.554210253607      9.105415665233     22.643380709435
H        8.070546670762     10.779533555703     22.284157203585
