 xtb: 6.6.0 (2ccbbd7)
          01032410083D

 36 38  0     0  0            999 V2000
    5.7471   11.6347   23.5669 C   0  0  0  0  0  0  0  0  0  0  0  0
    1.0763   11.1271   24.0515 N   0  0  0  0  0  0  0  0  0  0  0  0
    4.2337   15.0157   25.3939 O   0  0  0  0  0  0  0  0  0  0  0  0
    6.6138   12.6548   23.8778 C   0  0  0  0  0  0  0  0  0  0  0  0
    2.2396    9.9953   25.5970 N   0  0  0  0  0  0  0  0  0  0  0  0
    6.1398   10.4877   22.9894 O   0  0  0  0  0  0  0  0  0  0  0  0
    6.1530   13.8037   24.5166 C   0  0  0  0  0  0  0  0  0  0  0  0
   -1.6448   10.6539   26.5173 N   0  0  0  0  0  0  0  0  0  0  0  0
    4.7990   13.9054   24.8406 C   0  0  0  0  0  0  0  0  0  0  0  0
    0.4792    9.7878   27.2401 N   0  0  0  0  0  0  0  0  0  0  0  0
    3.9184   12.8690   24.5136 C   0  0  0  0  0  0  0  0  0  0  0  0
   -2.0308   11.5057   24.4125 N   0  0  0  0  0  0  0  0  0  0  0  0
    4.3613   11.7374   23.8598 C   0  0  0  0  0  0  0  0  0  0  0  0
    5.0182   16.0155   25.9950 C   0  0  0  0  0  0  0  0  0  0  0  0
    3.4637   10.5732   23.5301 C   0  0  0  0  0  0  0  0  0  0  0  0
    2.2587   10.5244   24.3889 C   0  0  0  0  0  0  0  0  0  0  0  0
    0.2106   10.8602   25.0935 C   0  0  0  0  0  0  0  0  0  0  0  0
    0.9566   10.1834   26.0391 C   0  0  0  0  0  0  0  0  0  0  0  0
   -1.1897   11.0028   25.3184 C   0  0  0  0  0  0  0  0  0  0  0  0
   -0.8006   10.0691   27.3709 C   0  0  0  0  0  0  0  0  0  0  0  0
    7.5068   10.1436   22.9796 C   0  0  0  0  0  0  0  0  0  0  0  0
   -1.3059    9.7493   28.5660 F   0  0  0  0  0  0  0  0  0  0  0  0
    0.8502   11.4388   23.1092 H   0  0  0  0  0  0  0  0  0  0  0  0
    7.6644   12.5734   23.6308 H   0  0  0  0  0  0  0  0  0  0  0  0
    6.8361   14.6106   24.7490 H   0  0  0  0  0  0  0  0  0  0  0  0
    2.8741   12.9698   24.7888 H   0  0  0  0  0  0  0  0  0  0  0  0
   -3.0349   11.5252   24.6151 H   0  0  0  0  0  0  0  0  0  0  0  0
   -1.7645   11.6391   23.4477 H   0  0  0  0  0  0  0  0  0  0  0  0
    5.5535   16.5949   25.2304 H   0  0  0  0  0  0  0  0  0  0  0  0
    4.3254   16.6732   26.5177 H   0  0  0  0  0  0  0  0  0  0  0  0
    5.7435   15.5985   26.7042 H   0  0  0  0  0  0  0  0  0  0  0  0
    4.0035    9.6323   23.6638 H   0  0  0  0  0  0  0  0  0  0  0  0
    3.1579   10.6080   22.4749 H   0  0  0  0  0  0  0  0  0  0  0  0
    7.9439   10.2065   23.9810 H   0  0  0  0  0  0  0  0  0  0  0  0
    7.5542    9.1054   22.6434 H   0  0  0  0  0  0  0  0  0  0  0  0
    8.0705   10.7795   22.2842 H   0  0  0  0  0  0  0  0  0  0  0  0
  1  4  4  0  0  0  0
  1  6  1  0  0  0  0
  4  7  4  0  0  0  0
  3  9  1  0  0  0  0
  7  9  4  0  0  0  0
  9 11  4  0  0  0  0
  1 13  4  0  0  0  0
 11 13  4  0  0  0  0
  3 14  1  0  0  0  0
 13 15  1  0  0  0  0
  2 16  4  0  0  0  0
  5 16  2  0  0  0  0
 15 16  1  0  0  0  0
  2 17  1  0  0  0  0
  5 18  4  0  0  0  0
 10 18  4  0  0  0  0
 17 18  4  0  0  0  0
  8 19  4  0  0  0  0
 12 19  4  0  0  0  0
 17 19  4  0  0  0  0
  8 20  4  0  0  0  0
 10 20  4  0  0  0  0
  6 21  1  0  0  0  0
 20 22  1  0  0  0  0
  2 23  1  0  0  0  0
  4 24  1  0  0  0  0
  7 25  1  0  0  0  0
 11 26  1  0  0  0  0
 12 27  1  0  0  0  0
 12 28  1  0  0  0  0
 14 29  1  0  0  0  0
 14 30  1  0  0  0  0
 14 31  1  0  0  0  0
 15 32  1  0  0  0  0
 15 33  1  0  0  0  0
 21 34  1  0  0  0  0
 21 35  1  0  0  0  0
 21 36  1  0  0  0  0
M  END
