   58
Gau_xtb
C       10.355959515223    -30.047947032273    -30.412145968481
C       11.156633332840    -29.513841073839    -29.312124019323
C       11.615383305852    -28.180898017919    -29.282264937174
C       12.347708148551    -27.673082511376    -28.220050300736
C       12.721557425453    -28.484290409752    -27.124045351867
C       12.331499607384    -29.841225357397    -27.177503345714
C       11.549410791104    -30.321610971967    -28.218913690655
C       10.432778350751    -31.465198414260    -30.689110918412
C       11.685934830929    -32.105705220351    -30.644820265225
C       11.849056122667    -33.415957984638    -31.050758534436
C       10.739732932840    -34.204492831381    -31.435840502147
C        9.462712200944    -33.597088587672    -31.391027678922
C        9.325178761047    -32.255235301112    -31.073994956109
C        9.556014737658    -29.207814191817    -31.301131732454
C        9.374142314570    -29.560787047217    -32.662687800432
C        8.582713257619    -28.816472313656    -33.524494722449
C        7.900021358492    -27.657068500224    -33.064106069318
C        8.132510475222    -27.248210060802    -31.727264443118
C        8.922161512045    -28.011180335706    -30.879071532082
C       13.828450145106    -28.850694796118    -24.967676056693
C       13.513236672423    -26.524246898705    -25.898370433667
C        9.872338010421    -36.261568259410    -32.466128196287
C       12.151688694445    -36.229705007118    -31.546624080119
C        6.587442614038    -25.640289265095    -33.505163941057
C        6.827408571306    -27.416867002939    -35.258601987236
N       13.410509035031    -27.962070452172    -26.038400543743
N       10.941747247376    -35.501491484714    -31.852995562166
N        7.049801287309    -26.951448239447    -33.895028589112
H        7.702995304314    -27.272154702525    -35.902745733589
H        6.569980952781    -28.483943059726    -35.276878448551
H        5.981234070414    -26.871613533702    -35.686729828044
H        5.774482295536    -25.686386948412    -32.765165687806
H        7.398062302370    -25.041041741972    -33.072059639891
H        6.208833156792    -25.113020107152    -34.384578994340
H       12.779704969637    -36.379110267869    -32.433566623944
H       12.725969235770    -35.730570411199    -30.765896693937
H       11.872991544390    -37.215991248091    -31.156301092031
H        9.329905411387    -36.889372444587    -31.745677704443
H        9.156235028890    -35.600924201870    -32.960953301895
H       10.284969270115    -36.917083306581    -33.239482981938
H       14.035739450023    -26.063654525560    -26.743318254469
H       12.519735610930    -26.053840774854    -25.820869138089
H       14.060929971835    -26.286355361586    -24.981919687718
H       12.995665265178    -29.428285117682    -24.546477846383
H       14.577111178980    -29.565502197556    -25.341032113560
H       14.293808068593    -28.268761924242    -24.167612899120
H        9.026305499540    -27.688846772511    -29.844892797662
H        7.646741230265    -26.365902387311    -31.327355974340
H        8.461154778871    -29.161243688465    -34.544456735846
H        9.847000628598    -30.461610942041    -33.043290657821
H        8.328891179353    -31.818998879720    -31.125601849822
H        8.563700656251    -34.177701099454    -31.574020212091
H       12.851271364787    -33.809379182949    -31.149180471519
H       12.572449094723    -31.541738769767    -30.365476915123
H       11.273983851284    -31.373342077650    -28.196825389065
H       12.654109140600    -30.540342987706    -26.414767950827
H       12.548746993018    -26.608482944767    -28.206862979787
H       11.360273027494    -27.500569188962    -30.092991765515
