 xtb: 6.6.0 (2ccbbd7)
          01092416583D

 59 61  0     0  0            999 V2000
   48.2216  -27.9362  -96.0892 C   0  0  0  0  0  0  0  0  0  0  0  0
   48.9020  -27.1278  -95.1598 C   0  0  0  0  0  0  0  0  0  0  0  0
   48.4905  -25.8169  -94.8830 C   0  0  0  0  0  0  0  0  0  0  0  0
   47.4129  -25.2817  -95.6010 C   0  0  0  0  0  0  0  0  0  0  0  0
   47.0238  -23.9977  -95.3817 O   0  0  0  0  0  0  0  0  0  0  0  0
   46.7505  -26.0621  -96.5465 C   0  0  0  0  0  0  0  0  0  0  0  0
   47.1395  -27.3770  -96.7634 C   0  0  0  0  0  0  0  0  0  0  0  0
   48.5907  -29.3527  -96.3442 C   0  0  0  0  0  0  0  0  0  0  0  0
   48.9787  -29.7993  -97.5452 C   0  0  0  0  0  0  0  0  0  0  0  0
   49.2473  -28.9181  -98.7599 C   0  0  0  0  0  0  0  0  0  0  0  0
   48.2895  -29.1855  -99.9351 C   0  0  0  0  0  0  0  0  0  0  0  0
   49.2693  -31.2457  -97.7664 C   0  0  0  0  0  0  0  0  0  0  0  0
   50.5720  -31.6954  -98.0370 C   0  0  0  0  0  0  0  0  0  0  0  0
   50.8067  -33.0210  -98.3797 C   0  0  0  0  0  0  0  0  0  0  0  0
   49.7424  -33.9095  -98.5053 C   0  0  0  0  0  0  0  0  0  0  0  0
   48.4520  -33.4890  -98.2181 C   0  0  0  0  0  0  0  0  0  0  0  0
   48.2205  -32.1788  -97.8027 C   0  0  0  0  0  0  0  0  0  0  0  0
   48.6280  -30.2307  -95.1356 C   0  0  0  0  0  0  0  0  0  0  0  0
   49.8072  -30.9004  -94.7503 C   0  0  0  0  0  0  0  0  0  0  0  0
   49.9222  -31.6043  -93.5562 C   0  0  0  0  0  0  0  0  0  0  0  0
   48.8234  -31.6650  -92.6986 C   0  0  0  0  0  0  0  0  0  0  0  0
   48.9099  -32.4404  -91.5627 O   0  0  0  0  0  0  0  0  0  0  0  0
   47.6534  -31.0023  -93.0599 C   0  0  0  0  0  0  0  0  0  0  0  0
   47.5472  -30.3109  -94.2647 C   0  0  0  0  0  0  0  0  0  0  0  0
   48.3969  -31.9223  -90.3479 C   0  0  0  0  0  0  0  0  0  0  0  0
   48.4064  -33.0508  -89.3553 C   0  0  0  0  0  0  0  0  0  0  0  0
   49.7987  -33.3805  -88.8684 N   0  0  0  0  0  0  0  0  0  0  0  0
   50.9544  -32.6123  -89.4954 C   0  0  0  0  0  0  0  0  0  0  0  0
   49.8366  -33.1306  -87.3807 C   0  0  0  0  0  0  0  0  0  0  0  0
   46.1233  -23.8880  -95.7010 H   0  0  0  0  0  0  0  0  0  0  0  0
   49.7601  -27.5385  -94.6358 H   0  0  0  0  0  0  0  0  0  0  0  0
   48.9774  -25.2054  -94.1332 H   0  0  0  0  0  0  0  0  0  0  0  0
   49.9696  -34.3771  -89.0404 H   0  0  0  0  0  0  0  0  0  0  0  0
   45.9092  -25.6408  -97.0821 H   0  0  0  0  0  0  0  0  0  0  0  0
   46.6006  -27.9732  -97.4884 H   0  0  0  0  0  0  0  0  0  0  0  0
   50.2711  -29.0988  -99.0869 H   0  0  0  0  0  0  0  0  0  0  0  0
   49.1763  -27.8710  -98.4660 H   0  0  0  0  0  0  0  0  0  0  0  0
   47.2566  -28.9661  -99.6604 H   0  0  0  0  0  0  0  0  0  0  0  0
   48.5447  -28.5553 -100.7880 H   0  0  0  0  0  0  0  0  0  0  0  0
   48.3480  -30.2348 -100.2287 H   0  0  0  0  0  0  0  0  0  0  0  0
   51.4076  -31.0017  -97.9990 H   0  0  0  0  0  0  0  0  0  0  0  0
   51.8150  -33.3442  -98.6083 H   0  0  0  0  0  0  0  0  0  0  0  0
   49.9156  -34.9222  -98.8445 H   0  0  0  0  0  0  0  0  0  0  0  0
   47.6314  -34.1800  -98.3554 H   0  0  0  0  0  0  0  0  0  0  0  0
   47.2160  -31.8475  -97.5742 H   0  0  0  0  0  0  0  0  0  0  0  0
   50.6768  -30.8519  -95.3894 H   0  0  0  0  0  0  0  0  0  0  0  0
   50.8389  -32.1366  -93.3238 H   0  0  0  0  0  0  0  0  0  0  0  0
   46.8332  -30.9849  -92.3610 H   0  0  0  0  0  0  0  0  0  0  0  0
   46.6332  -29.7881  -94.5098 H   0  0  0  0  0  0  0  0  0  0  0  0
   47.3715  -31.5872  -90.4668 H   0  0  0  0  0  0  0  0  0  0  0  0
   48.9995  -31.0883  -89.9812 H   0  0  0  0  0  0  0  0  0  0  0  0
   48.0066  -33.9517  -89.8113 H   0  0  0  0  0  0  0  0  0  0  0  0
   47.8171  -32.7935  -88.4792 H   0  0  0  0  0  0  0  0  0  0  0  0
   51.8523  -33.0805  -89.1015 H   0  0  0  0  0  0  0  0  0  0  0  0
   50.9451  -32.6676  -90.5736 H   0  0  0  0  0  0  0  0  0  0  0  0
   50.9142  -31.5823  -89.1340 H   0  0  0  0  0  0  0  0  0  0  0  0
   49.5684  -32.0869  -87.2270 H   0  0  0  0  0  0  0  0  0  0  0  0
   49.1861  -33.8343  -86.8733 H   0  0  0  0  0  0  0  0  0  0  0  0
   50.8610  -33.2426  -87.0375 H   0  0  0  0  0  0  0  0  0  0  0  0
  1  2  4  0  0  0  0
  2  3  4  0  0  0  0
  3  4  4  0  0  0  0
  4  5  1  0  0  0  0
  4  6  4  0  0  0  0
  1  7  4  0  0  0  0
  6  7  4  0  0  0  0
  1  8  1  0  0  0  0
  8  9  2  0  0  0  0
  9 10  1  0  0  0  0
 10 11  1  0  0  0  0
  9 12  1  0  0  0  0
 12 13  4  0  0  0  0
 13 14  4  0  0  0  0
 14 15  4  0  0  0  0
 15 16  4  0  0  0  0
 12 17  4  0  0  0  0
 16 17  4  0  0  0  0
  8 18  1  0  0  0  0
 18 19  4  0  0  0  0
 19 20  4  0  0  0  0
 20 21  4  0  0  0  0
 21 22  1  0  0  0  0
 21 23  4  0  0  0  0
 18 24  4  0  0  0  0
 23 24  4  0  0  0  0
 22 25  1  0  0  0  0
 25 26  1  0  0  0  0
 26 27  1  0  0  0  0
 27 28  1  0  0  0  0
 27 29  1  0  0  0  0
  5 30  1  0  0  0  0
  2 31  1  0  0  0  0
  3 32  1  0  0  0  0
 27 33  1  0  0  0  0
  6 34  1  0  0  0  0
  7 35  1  0  0  0  0
 10 36  1  0  0  0  0
 10 37  1  0  0  0  0
 11 38  1  0  0  0  0
 11 39  1  0  0  0  0
 11 40  1  0  0  0  0
 13 41  1  0  0  0  0
 14 42  1  0  0  0  0
 15 43  1  0  0  0  0
 16 44  1  0  0  0  0
 17 45  1  0  0  0  0
 19 46  1  0  0  0  0
 20 47  1  0  0  0  0
 23 48  1  0  0  0  0
 24 49  1  0  0  0  0
 25 50  1  0  0  0  0
 25 51  1  0  0  0  0
 26 52  1  0  0  0  0
 26 53  1  0  0  0  0
 28 54  1  0  0  0  0
 28 55  1  0  0  0  0
 28 56  1  0  0  0  0
 29 57  1  0  0  0  0
 29 58  1  0  0  0  0
 29 59  1  0  0  0  0
M  CHG  1   1   1
M  END
