   59
Gau_xtb
C       48.227838600512    -27.938012020441    -96.090446734742
C       48.900612638926    -27.121625301693    -95.161815267917
C       48.486386989117    -25.816080687745    -94.894341238669
C       47.400601990984    -25.281265459259    -95.608809040083
O       47.013085163098    -24.008537647673    -95.371067892975
C       46.741459653551    -26.069577495987    -96.551832857944
C       47.139563782199    -27.385539980684    -96.756961362705
C       48.602194427451    -29.355688912458    -96.341000022772
C       48.987008405143    -29.804227464735    -97.545279499433
C       49.244454613669    -28.932319471992    -98.764371077160
C       48.276237823995    -29.184487350138    -99.939790251744
C       49.278487846118    -31.248505788666    -97.770620735649
C       50.578952709700    -31.700894511221    -98.042420275208
C       50.812839996531    -33.025025586506    -98.383363109742
C       49.746434369792    -33.913395300434    -98.501077898213
C       48.458132637084    -33.490166019978    -98.209392577223
C       48.229508110632    -32.176411685439    -97.808196678353
C       48.636193849898    -30.233760915644    -95.131523635737
C       49.806981904149    -30.917333094835    -94.754031718572
C       49.915230401938    -31.618478115290    -93.559783432634
C       48.822501493305    -31.660437768309    -92.695498270439
O       48.923376210564    -32.420931213035    -91.550485998043
C       47.655274039310    -30.997448380600    -93.052923546159
C       47.560388032482    -30.297006270196    -94.251117862383
C       48.399299992851    -31.938101848290    -90.332901880425
C       48.447013416284    -33.078963230388    -89.347085209485
N       49.828649265708    -33.359770820595    -88.808735250744
C       50.965264927500    -32.635392528468    -89.489355379723
C       49.858666887868    -33.107813222463    -87.329884814326
H       46.138990100197    -23.864502577308    -95.757100850754
H       49.758337360648    -27.521071910437    -94.623277349164
H       48.969164063859    -25.197379033223    -94.144259844693
H       50.013785109030    -34.360840132632    -88.931908199608
H       45.893027602497    -25.661178786598    -97.096280357123
H       46.588678312557    -28.001230024990    -97.463159183524
H       50.268055467328    -29.125021525859    -99.104645281646
H       49.178658288934    -27.880722576318    -98.473996586264
H       47.250478390181    -28.931978901967    -99.653533911145
H       48.550741243748    -28.560750445254   -100.795966733355
H       48.294004505274    -30.236073215811   -100.243568503604
H       51.415344569888    -31.004206981086    -97.997654131986
H       51.823878869286    -33.356482760358    -98.610361656077
H       49.918626562183    -34.932173683746    -98.837978962457
H       47.632760007690    -34.184846849968    -98.329435435862
H       47.223103688211    -31.829846370500    -97.599159203310
H       50.670858076314    -30.876056041865    -95.409894915769
H       50.831642617884    -32.148706903446    -93.315807315077
H       46.824453029524    -30.980584679387    -92.362841116501
H       46.650352186995    -29.750883420897    -94.481735958978
H       47.346526207092    -31.649032707489    -90.425387907080
H       48.949848742468    -31.068106245685    -89.953169623099
H       48.095002780953    -33.995906706372    -89.822633653705
H       47.820957611233    -32.852332714079    -88.486229607537
H       51.883354523566    -33.078784070374    -89.102108191856
H       50.891546252194    -32.771643348272    -90.564083477061
H       50.912479203701    -31.584423092839    -89.180924407527
H       49.575758417509    -32.060500627098    -87.193116424483
H       49.197496440289    -33.827620904262    -86.845982739503
H       50.882405681537    -33.236234321705    -86.978560139044
