   42
Gau_xtb
C        8.780613111860     -5.707408760710     -3.653400962901
H        8.471850339641     -5.415461759701     -2.662654761607
C        8.022667347317     -5.288080380534     -4.726546420126
H        7.135060963444     -4.695235667873     -4.580951539649
C        8.460674248837     -5.566126970543     -6.017534573026
Cl       7.445741785801     -4.943786035759     -7.257025272221
C        9.640106413709     -6.284273502221     -6.260445790507
H        9.948463715899     -6.486238516755     -7.271943523295
C       10.371273216325     -6.730829394356     -5.155839721018
H       11.269289320947     -7.311249166123     -5.283696700219
C        9.941845365423     -6.452936034358     -3.843414556575
C       10.673121168046     -6.930834708748     -2.653694180962
N       11.922856127978     -7.095104830569     -2.771136659413
C        9.882727241169     -7.040810826662     -1.399878300736
C        8.566521246454     -7.510939820493     -1.475234886159
H        8.235114492605     -7.971863443661     -2.395270282366
C        7.702989794313     -7.438638485290     -0.391619388181
H        6.720633343622     -7.872005926475     -0.460796573159
C        8.126783594809     -6.857172173448      0.813739518557
H        7.452513866288     -6.811530590163      1.649026138665
C        9.418481807761     -6.377085468900      0.893744654315
H        9.780197913790     -5.912128225441      1.797667659361
C       10.317012332420     -6.434669593044     -0.192008913817
C       11.665050129426     -5.887113763641     -0.075546245437
C       12.242848501005     -4.764873902884      0.577409251551
C       11.614487625788     -3.672768904295      1.385321079689
H       11.323708604863     -4.027999639858      2.371209150634
H       10.744954053215     -3.262054214740      0.887629483875
H       12.360540849474     -2.891000618038      1.522458199557
N       13.534385003945     -4.725214720030      0.345821514886
O       13.859731057357     -5.739593043025     -0.489348805214
C       12.741799916910     -6.407599141096     -0.755937994398
C       12.695328833565     -7.583469815712     -1.672338790343
H       12.159356724997     -8.402707424665     -1.163530873729
C       14.058812831683     -8.050734789337     -2.130186163290
H       14.629135102724     -8.439239217294     -1.293154863056
H       14.585968969618     -7.201286088210     -2.545611823184
C       13.900015340256     -9.114734795903     -3.228795222347
O       12.895952278003     -9.773072643278     -3.401239284756
N       15.018265220726     -9.258651226260     -3.962735885162
H       15.014528940457     -9.868309890131     -4.764894602885
H       15.793016976478     -8.613211089813     -3.887404079740
