 xtb: 6.5.1 (b24c23e)
          10112201303D

 42 45  0     0  0            999 V2000
    8.7806   -5.7074   -3.6534 C   0  0  0  0  0  0  0  0  0  0  0  0
    8.4719   -5.4155   -2.6627 H   0  0  0  0  0  0  0  0  0  0  0  0
    8.0227   -5.2881   -4.7265 C   0  0  0  0  0  0  0  0  0  0  0  0
    7.1351   -4.6952   -4.5810 H   0  0  0  0  0  0  0  0  0  0  0  0
    8.4607   -5.5661   -6.0175 C   0  0  0  0  0  0  0  0  0  0  0  0
    7.4457   -4.9438   -7.2570 Cl  0  0  0  0  0  0  0  0  0  0  0  0
    9.6401   -6.2843   -6.2604 C   0  0  0  0  0  0  0  0  0  0  0  0
    9.9485   -6.4862   -7.2719 H   0  0  0  0  0  0  0  0  0  0  0  0
   10.3713   -6.7308   -5.1558 C   0  0  0  0  0  0  0  0  0  0  0  0
   11.2693   -7.3112   -5.2837 H   0  0  0  0  0  0  0  0  0  0  0  0
    9.9418   -6.4529   -3.8434 C   0  0  0  0  0  0  0  0  0  0  0  0
   10.6731   -6.9308   -2.6537 C   0  0  0  0  0  0  0  0  0  0  0  0
   11.9229   -7.0951   -2.7711 N   0  0  0  0  0  0  0  0  0  0  0  0
    9.8827   -7.0408   -1.3999 C   0  0  0  0  0  0  0  0  0  0  0  0
    8.5665   -7.5109   -1.4752 C   0  0  0  0  0  0  0  0  0  0  0  0
    8.2351   -7.9719   -2.3953 H   0  0  0  0  0  0  0  0  0  0  0  0
    7.7030   -7.4386   -0.3916 C   0  0  0  0  0  0  0  0  0  0  0  0
    6.7206   -7.8720   -0.4608 H   0  0  0  0  0  0  0  0  0  0  0  0
    8.1268   -6.8572    0.8137 C   0  0  0  0  0  0  0  0  0  0  0  0
    7.4525   -6.8115    1.6490 H   0  0  0  0  0  0  0  0  0  0  0  0
    9.4185   -6.3771    0.8937 C   0  0  0  0  0  0  0  0  0  0  0  0
    9.7802   -5.9121    1.7977 H   0  0  0  0  0  0  0  0  0  0  0  0
   10.3170   -6.4347   -0.1920 C   0  0  0  0  0  0  0  0  0  0  0  0
   11.6651   -5.8871   -0.0755 C   0  0  0  0  0  0  0  0  0  0  0  0
   12.2428   -4.7649    0.5774 C   0  0  0  0  0  0  0  0  0  0  0  0
   11.6145   -3.6728    1.3853 C   0  0  0  0  0  0  0  0  0  0  0  0
   11.3237   -4.0280    2.3712 H   0  0  0  0  0  0  0  0  0  0  0  0
   10.7450   -3.2621    0.8876 H   0  0  0  0  0  0  0  0  0  0  0  0
   12.3605   -2.8910    1.5225 H   0  0  0  0  0  0  0  0  0  0  0  0
   13.5344   -4.7252    0.3458 N   0  0  0  0  0  0  0  0  0  0  0  0
   13.8597   -5.7396   -0.4893 O   0  0  0  0  0  0  0  0  0  0  0  0
   12.7418   -6.4076   -0.7559 C   0  0  0  0  0  0  0  0  0  0  0  0
   12.6953   -7.5835   -1.6723 C   0  0  0  0  0  0  0  0  0  0  0  0
   12.1594   -8.4027   -1.1635 H   0  0  0  0  0  0  0  0  0  0  0  0
   14.0588   -8.0507   -2.1302 C   0  0  0  0  0  0  0  0  0  0  0  0
   14.6291   -8.4392   -1.2932 H   0  0  0  0  0  0  0  0  0  0  0  0
   14.5860   -7.2013   -2.5456 H   0  0  0  0  0  0  0  0  0  0  0  0
   13.9000   -9.1147   -3.2288 C   0  0  0  0  0  0  0  0  0  0  0  0
   12.8960   -9.7731   -3.4012 O   0  0  0  0  0  0  0  0  0  0  0  0
   15.0183   -9.2587   -3.9627 N   0  0  0  0  0  0  0  0  0  0  0  0
   15.0145   -9.8683   -4.7649 H   0  0  0  0  0  0  0  0  0  0  0  0
   15.7930   -8.6132   -3.8874 H   0  0  0  0  0  0  0  0  0  0  0  0
  1  2  1  0  0  0  0
  1  3  4  0  0  0  0
  3  4  1  0  0  0  0
  3  5  4  0  0  0  0
  5  6  1  0  0  0  0
  5  7  4  0  0  0  0
  7  8  1  0  0  0  0
  7  9  4  0  0  0  0
  9 10  1  0  0  0  0
  1 11  4  0  0  0  0
  9 11  4  0  0  0  0
 11 12  1  0  0  0  0
 12 13  2  0  0  0  0
 12 14  1  0  0  0  0
 14 15  4  0  0  0  0
 15 16  1  0  0  0  0
 15 17  4  0  0  0  0
 17 18  1  0  0  0  0
 17 19  4  0  0  0  0
 19 20  1  0  0  0  0
 19 21  4  0  0  0  0
 21 22  1  0  0  0  0
 14 23  4  0  0  0  0
 21 23  4  0  0  0  0
 23 24  1  0  0  0  0
 24 25  4  0  0  0  0
 25 26  1  0  0  0  0
 26 27  1  0  0  0  0
 26 28  1  0  0  0  0
 26 29  1  0  0  0  0
 25 30  2  0  0  0  0
 30 31  1  0  0  0  0
 24 32  4  0  0  0  0
 31 32  1  0  0  0  0
 13 33  1  0  0  0  0
 32 33  1  0  0  0  0
 33 34  1  0  0  0  0
 33 35  1  0  0  0  0
 35 36  1  0  0  0  0
 35 37  1  0  0  0  0
 35 38  1  0  0  0  0
 38 39  2  0  0  0  0
 38 40  4  0  0  0  0
 40 41  1  0  0  0  0
 40 42  1  0  0  0  0
M  END
