 xtb: 6.6.0 (2ccbbd7)
          01112421533D

 34 36  0     0  0            999 V2000
   50.0891   48.3296   31.2524 C   0  0  0  0  0  0  0  0  0  0  0  0
   50.6938   48.9044   30.1022 O   0  0  0  0  0  0  0  0  0  0  0  0
   50.5657   46.8862   31.5069 C   0  0  0  0  0  0  0  0  0  0  0  0
   50.5444   46.1765   30.1761 N   0  0  0  0  0  0  0  0  0  0  0  0
   52.0131   46.7453   32.1006 C   0  0  0  0  0  0  0  0  0  0  0  0
   51.9311   46.0628   33.3340 O   0  0  0  0  0  0  0  0  0  0  0  0
   52.8851   45.9893   31.0042 C   0  0  0  0  0  0  0  0  0  0  0  0
   53.3173   44.6924   31.3374 O   0  0  0  0  0  0  0  0  0  0  0  0
   51.9907   45.9119   29.7190 C   0  0  0  0  0  0  0  0  0  0  0  0
   55.7324   47.6103   26.5457 N   0  0  0  0  0  0  0  0  0  0  0  0
   55.8425   46.9586   27.7313 C   0  0  0  0  0  0  0  0  0  0  0  0
   54.8529   46.6303   28.5025 N   0  0  0  0  0  0  0  0  0  0  0  0
   53.6239   46.9810   27.9816 C   0  0  0  0  0  0  0  0  0  0  0  0
   53.4525   47.6744   26.7866 C   0  0  0  0  0  0  0  0  0  0  0  0
   54.5545   48.1089   25.9757 C   0  0  0  0  0  0  0  0  0  0  0  0
   54.5770   48.8282   24.9892 O   0  0  0  0  0  0  0  0  0  0  0  0
   52.1146   47.8495   26.5835 N   0  0  0  0  0  0  0  0  0  0  0  0
   51.4260   47.2889   27.6101 C   0  0  0  0  0  0  0  0  0  0  0  0
   52.3140   46.7383   28.5228 C   0  0  0  0  0  0  0  0  0  0  0  0
   50.0713   46.7797   29.4957 H   0  0  0  0  0  0  0  0  0  0  0  0
   56.5627   47.9155   26.0424 H   0  0  0  0  0  0  0  0  0  0  0  0
   50.0230   45.2857   30.2193 H   0  0  0  0  0  0  0  0  0  0  0  0
   51.7293   48.4469   25.8629 H   0  0  0  0  0  0  0  0  0  0  0  0
   52.5296   44.1820   31.6714 H   0  0  0  0  0  0  0  0  0  0  0  0
   51.8224   46.7075   34.0494 H   0  0  0  0  0  0  0  0  0  0  0  0
   51.6581   48.8586   30.1793 H   0  0  0  0  0  0  0  0  0  0  0  0
   56.8493   46.6618   28.0051 H   0  0  0  0  0  0  0  0  0  0  0  0
   50.3481   47.3903   27.6077 H   0  0  0  0  0  0  0  0  0  0  0  0
   52.0088   44.8617   29.4223 H   0  0  0  0  0  0  0  0  0  0  0  0
   53.7708   46.5901   30.7990 H   0  0  0  0  0  0  0  0  0  0  0  0
   52.4269   47.7569   32.2243 H   0  0  0  0  0  0  0  0  0  0  0  0
   49.8716   46.3930   32.1932 H   0  0  0  0  0  0  0  0  0  0  0  0
   49.0147   48.3300   31.0581 H   0  0  0  0  0  0  0  0  0  0  0  0
   50.2687   48.9320   32.1496 H   0  0  0  0  0  0  0  0  0  0  0  0
  1  2  1  0  0  0  0
  1  3  1  0  0  0  0
  3  4  1  0  0  0  0
  3  5  1  0  0  0  0
  5  6  1  0  0  0  0
  5  7  1  0  0  0  0
  7  8  1  0  0  0  0
  4  9  1  0  0  0  0
  7  9  1  0  0  0  0
 10 11  4  0  0  0  0
 11 12  2  0  0  0  0
 12 13  1  0  0  0  0
 13 14  4  0  0  0  0
 10 15  1  0  0  0  0
 14 15  1  0  0  0  0
 15 16  2  0  0  0  0
 14 17  4  0  0  0  0
 17 18  4  0  0  0  0
  9 19  1  0  0  0  0
 13 19  4  0  0  0  0
 18 19  4  0  0  0  0
  4 20  1  0  0  0  0
 10 21  1  0  0  0  0
  4 22  1  0  0  0  0
 17 23  1  0  0  0  0
  8 24  1  0  0  0  0
  6 25  1  0  0  0  0
  2 26  1  0  0  0  0
 11 27  1  0  0  0  0
 18 28  1  0  0  0  0
  9 29  1  0  0  0  0
  7 30  1  0  0  0  0
  5 31  1  0  0  0  0
  3 32  1  0  0  0  0
  1 33  1  0  0  0  0
  1 34  1  0  0  0  0
M  CHG  1   1   1
M  END
