  257
Gau_xtb
H        4.170242644139      0.034067677310      0.671923677842
N        3.643000262153     -0.587000042241      0.214000015400
C        3.330000239630     -1.873000134782      0.827000059511
C        4.556000327853     -2.673000192351      1.281000092182
O        4.539000326630     -3.174000228404      2.384000171554
C        2.361000169899     -2.704000194582     -0.022000001583
C        2.805000201850     -2.933000211061     -1.388000099881
C        2.490000179182     -2.188000157450     -2.500000179902
C        3.554000255748     -4.053000291657     -1.855000133487
N        3.143000226173     -2.697000194078     -3.601000259131
C        3.732000268558     -3.886000279640     -3.249000233801
C        4.083000293816     -5.191000373548     -1.235000088872
C        4.447000320010     -4.796000345124     -4.019000289210
C        4.820000346851     -6.077000437306     -2.002000144065
C        5.002000359948     -5.875000422770     -3.370000242508
H        3.320000238910     -0.294000021156     -0.715000051452
H        2.767000199116     -1.691000121686      1.656000119167
H        2.241000161264     -3.591000258411      0.424000030512
H        1.484000106790     -2.223000159969     -0.050000003598
H        1.883000135502     -1.402000100889     -2.508000180478
H        3.182000228979     -2.274000163639     -4.501000323895
H        3.936000283238     -5.363000385925     -0.266000019141
H        4.547000327205     -4.662000335481     -5.008000360380
H        5.226000376067     -6.875000494730     -1.561000112331
H        5.551000399454     -6.533000470120     -3.889000279856
N        5.627000404923     -2.788000200626      0.469000033750
C        6.773000487390     -3.573000257116      0.938000067499
C        7.454000536396     -3.031000218113      2.177000156659
O        8.327000599217     -3.726000268126      2.758000198468
C        7.764000558703     -3.496000251575     -0.234000016839
C        7.035000506244     -2.864000206095     -1.368000098442
C        5.976000430038     -2.028000145936     -0.748000053827
H        6.494000467314     -4.550000327421      1.078000077574
H        8.573000616920     -2.948000212140      0.027000001943
H        8.088000582019     -4.421000318138     -0.481000034613
H        7.666000551651     -2.304000165798     -1.922000138309
H        6.638000477676     -3.572000257044     -1.967000141547
H        6.311000454144     -1.118000080452     -0.502000036124
H        5.174000372325     -1.937000139388     -1.340000096427
N        7.189000517326     -1.757000126435      2.490000179182
C        7.853000565108     -1.095000078797      3.625000260858
C        6.940000499408     -0.957000068867      4.815000346491
O        7.341000528264     -0.356000025618      5.779000415861
C        8.394000604039      0.279000020077      3.235000232793
C        9.275000667436      0.252000018134      1.990000143202
C       10.606000763216     -0.028000002015      2.085000150038
C        8.714000627066      0.381000027417      0.739000053179
C       11.429000822440      0.000000000000      0.955000068723
C        9.501000683699      0.339000024395     -0.397000028568
C       10.850000780774      0.124000008923     -0.290000020869
H        6.497000467529     -1.291000092901      1.883000135502
H        8.617000620086     -1.699000122261      3.898000280503
H        7.630000549060      0.870000062606      3.043000218976
H        8.944000643617      0.617000044400      3.979000286332
H       11.018000792864     -0.260000018710      2.966000213436
H        7.723000555753      0.506000036412      0.648000046630
H       12.421000893825     -0.069000004965      1.065000076638
H        9.068000652540      0.471000033893     -1.308000094125
H       11.422000821936      0.055000003958     -1.112000080020
H        6.010935026124     -1.430178930894      4.783559890543
H        9.989576522260     -6.856784236330      7.226514319647
N       10.820000778616     -6.917000497753      6.805000489693
C       11.023000793224     -7.885000567411      5.740000413055
C       10.869000782142     -9.305000669595      6.297000453137
O       11.622000836328     -9.708000698595      7.193000517614
C       12.399000892241     -7.722000555681      5.096000366712
C       12.610000907425     -8.822000634838      4.066000292593
C       12.494000899078     -6.344000456519      4.461000321017
H       11.538000830284     -6.269000451122      7.147000514304
H       10.312000742060     -7.751000557768      5.048000363258
H       13.086000941678     -7.851000564964      5.801000417444
H       12.154000874611     -8.572000616848      3.212000231138
H       13.589000977875     -8.939000643257      3.898000280503
H       12.226000879792     -9.679000696508      4.409000317275
H       12.099000870654     -5.666000407730      5.081000365633
H       13.455000968232     -6.124000440688      4.290000308712
H       11.990000862810     -6.342000456375      3.597000258843
H       10.103425679791     -9.889793150240      5.875698343425
H        8.876932963933    -15.200290696849      1.868409964320
N        9.498000683483    -14.498001043287      1.832000131832
C        9.959000716657    -13.939001003061      0.574000041305
C       11.077000797109    -14.797001064803     -0.045000003238
O       11.512000828412    -14.527001045374     -1.161000083546
C       10.426000750263    -12.484000898358      0.802000057712
C        9.370000674273    -11.366000817906      0.972000069946
C        9.989000718816    -10.078000725221      1.502000108085
C        8.646000622173    -11.077000797109     -0.351000025258
H        9.819000706583    -14.164001019253      2.765000198971
H        9.190000661320    -13.917001001478     -0.077000005541
H       10.996000791280    -12.476000897783      1.633000117512
H       11.003000791784    -12.225000879720      0.019000001367
H        8.667000623684    -11.688000841077      1.611000115929
H       10.687000769045     -9.756000702049      0.862000062030
H        9.278000667652     -9.382000675136      1.598000114993
H       10.408000748968    -10.252000737742      2.393000172202
H        8.186000589071    -11.907000856837     -0.661000047566
H        7.974000573815    -10.353000745010     -0.205000014752
H        9.314000670243    -10.786000776169     -1.033000074336
H       11.427561880937    -15.608164828279      0.528788317825
H       14.004737491724    -15.601169364638      0.254120245130
N       14.240001024721    -14.978001077829      0.920000066204
C       15.492001114816    -14.198001021699      0.935000067283
C       16.340001175839    -14.586001049620      2.138000153852
O       16.548001190807    -13.812000993922      3.081000221711
C       15.212001094667    -12.690000913182      0.960000069082
C       14.209001022491    -12.215000879001     -0.094000006764
C       13.868000997952    -10.742000773003      0.087000006261
C       14.751001061493    -12.492000898934     -1.491000107294
H       13.512000972334    -14.882001070920      1.677000120678
H       16.003001151588    -14.409001036883      0.099000007124
H       14.840001067898    -12.465000896991      1.848000132983
H       16.064001155978    -12.219000879288      0.795000057209
H       13.372000962259    -12.762000918363     -0.015000001079
H       14.700001057823    -10.194000733568      0.002000000144
H       13.212000950746    -10.462000752854     -0.615000044256
H       13.467000969096    -10.601000762856      0.992000071385
H       14.903001072431    -13.475000969671     -1.601000115209
H       14.090001013927    -12.179000876410     -2.173000156371
H       15.616001123739    -12.005000863889     -1.616000116289
H       16.737722943590    -15.555939115637      2.115205823289
H       21.310127809485     -3.534410462279     -0.426561467369
N       20.472001473181     -3.867000278272     -0.199000014320
C       20.103001446627     -5.241000377146     -0.533000038355
C       19.765001422304     -5.415000389668     -2.033000146296
O       20.146001449722     -6.412000461412     -2.648000190552
C       18.954001363944     -5.757000414278      0.381000027417
C       18.606001338902     -7.227000520061      0.137000009858
C       19.334001391290     -8.248000593533      0.737000053035
C       17.638001269244     -7.592000546326     -0.808000058145
C       19.113001375386     -9.582000689528      0.421000030296
C       17.395001251757     -8.927000642394     -1.119000080524
C       18.133001304865     -9.918000713707     -0.499000035908
O       17.905001288457    -11.248000809415     -0.814000058576
H       19.850001428421     -3.208000230850      0.290000020869
H       20.888001503117     -5.843000420467     -0.327000023531
H       19.244001384813     -5.658000407154      1.321000095060
H       18.149001306016     -5.213000375132      0.195000014032
H       20.039001442022     -8.018000576982      1.416000101896
H       17.112001231393     -6.878000494946     -1.266000091102
H       19.660001414749    -10.299000741124      0.858000061742
H       16.691001201097     -9.165000659521     -1.787000128594
H       17.176001235998    -11.287000812221     -1.509000108589
N       19.093001373947     -4.425000318426     -2.622000188681
C       18.787001351927     -4.422000318211     -4.041000290793
C       19.770001422664     -3.623000260714     -4.880000351169
O       20.883001502757     -3.342000240493     -4.455000320585
C       17.336001247512     -3.964000285253     -4.177000300580
C       16.415001181236     -4.785000344332     -3.287000236535
O       16.393001179653     -6.002000431909     -3.417000245890
N       15.844001140147     -4.165000299716     -2.249000161840
H       18.809001353510     -3.656000263089     -1.972000141906
H       18.841001355813     -5.387000387653     -4.361000313821
H       17.276001243194     -3.015000216962     -3.902000280791
H       17.054001227219     -4.083000293816     -5.118000368295
H       16.041001154323     -3.190000229555     -2.106000151549
H       15.241001096754     -4.657000335121     -1.638000117872
H       19.502757547101     -3.443789661806     -5.873518759147
H       11.514299127255     -2.091551001171     -7.355176332687
N       11.891000855685     -2.644000190264     -6.704000482425
C       11.824000850864     -2.267000163135     -5.290000380672
C       12.602000906850     -0.964000069370     -5.041000362754
O       12.237000880584     -0.153000011010     -4.187000301300
C       12.286000884110     -3.418000245962     -4.350000313029
C       12.162000875187     -3.027000217825     -2.859000205736
C       13.726000987734     -3.820000274890     -4.590000330300
C       10.752000773722     -2.772000199475     -2.403000172922
H       12.336000887708     -3.501000251935     -7.051000507395
H       10.863000781710     -2.063000148455     -5.097000366784
H       11.690000841222     -4.200000302235     -4.511000324615
H       12.560000903827     -3.766000271004     -2.315000166589
H       12.708000914478     -2.200000158314     -2.717000195517
H       13.962001004716     -4.595000330659     -4.005000288203
H       13.848000996513     -4.081000293672     -5.547000399166
H       14.330001031198     -3.052000219625     -4.379000315116
H       10.202000734144     -3.597000258843     -2.535000182420
H       10.752000773722     -2.526000181773     -1.433000103120
H       10.357000745298     -2.022000145505     -2.935000211205
H       13.444605126274     -0.811513858019     -5.648587173962
H       10.940503244754      2.636086768145     -6.657434505539
N       10.561000759978      1.945000139964     -6.161000443350
C        9.574000688952      2.214000159321     -5.117000368223
C       10.217000735223      3.005000216242     -3.981000286476
O        9.707000698523      4.041000290793     -3.575000257260
C        9.038000650381      0.915000065844     -4.567000328645
C        8.269000595044      0.139000010003     -5.602000403124
S        8.060000580004     -1.594000114706     -5.185000373117
C        6.406000460981     -1.508000108517     -4.484000322672
H       10.891000783725      0.995000071601     -6.407000461052
H        8.845000636493      2.776000199763     -5.512000396648
H        9.802000705360      0.350000025186     -4.244000305401
H        8.429000606557      1.108000079732     -3.793000272947
H        7.352000529055      0.593000042673     -5.739000412983
H        8.747000629441      0.239000017199     -6.511000468537
H        5.825000419171     -2.196000158026     -4.918000353903
H        6.453000464363     -1.682000121038     -3.500000251863
H        6.024000433492     -0.598000043033     -4.645000334258
H       11.123271877944      2.645793007028     -3.617077008870
C        8.777067441605     -5.688545299352     -3.649491462620
H        8.465400379177     -5.388462257758     -2.662649931606
C        8.028297607722     -5.263409258759     -4.725829820074
H        7.157991295095     -4.646311954352     -4.583774219852
C        8.459420008747     -5.554376779697     -6.015626922889
Cl       7.438625475289     -4.946585055960     -7.254031812005
C        9.632408543156     -6.285612512317     -6.254493230078
H        9.930589064613     -6.506948548245     -7.265819862854
C       10.360048575517     -6.728328984176     -5.145289640259
H       11.250388269586     -7.325234157130     -5.258725668422
C        9.934825034917     -6.442107093579     -3.834613425942
C       10.672884848029     -6.924379908283     -2.649110780632
N       11.924064098065     -7.088921170124     -2.773525779585
C        9.886205271419     -7.038695266510     -1.394986180384
C        8.567151116499     -7.497783329546     -1.482130716655
H        8.239672512933     -7.930771880704     -2.415618103830
C        7.700140044108     -7.437449785205     -0.401517578893
H        6.716049503292     -7.867579476157     -0.486436585004
C        8.125954164750     -6.877619944919      0.813967808574
H        7.468826777462     -6.875755554784      1.666259279905
C        9.419714787850     -6.394303100139      0.899848404754
H        9.775950303485     -5.948302718044      1.815062560614
C       10.320538582674     -6.438783533340     -0.184660173288
C       11.669718739762     -5.889465423811     -0.071772555165
C       12.249363711473     -4.764935572888      0.579468151699
C       11.632554987088     -3.673705374363      1.395657820433
H       11.358565487371     -4.051952841582      2.376573281020
H       10.756701714061     -3.262329014759      0.910698665535
H       12.387046331382     -2.903624898947      1.541515860929
N       13.539491834312     -4.723572209912      0.357397775719
O       13.866386727836     -5.740032563057     -0.494825995608
C       12.741974276922     -6.407484371087     -0.757583814516
C       12.703307014140     -7.579837375451     -1.677410220708
H       12.165955245471     -8.403055764690     -1.175922844620
C       14.070411112517     -8.050433859315     -2.121694032679
H       14.594915330261     -8.482388340399     -1.274071341683
H       14.652535034407     -7.210401178866     -2.500443049934
C       13.906544630726     -9.103690275109     -3.229553302401
O       12.906803108783     -9.771073123134     -3.398911984588
N       15.032678441763     -9.248156795505     -3.956032124679
H       14.996416079153     -9.806693665697     -4.793782294964
H       15.753633483643     -8.538294134422     -3.921978962229
O       14.159001018893     -1.306000093981      3.280000236031
H       14.600001050627     -0.427000030727      3.462000249128
H       14.826001066891     -2.040000146800      3.152000226820
O       15.077001084952     -6.588000474078     -5.704000410464
H       15.564001119998     -6.371000458462     -4.858000349585
H       14.644001053794     -7.489000538914     -5.667000407802
O       10.126000728675     -3.423000246322      5.012000360667
H        9.441000679382     -3.810000274171      5.629000405067
H       10.197000733784     -3.941000283597      4.159000299285
O        8.395000604111     -6.273000451410      4.017000289066
H        8.371000602384     -5.377000386933      3.574000257188
H        8.747000629441     -6.983000502502      3.407000245170
O       18.101001302562     -8.327000599217     -4.240000305114
H       17.532001261616     -7.552000543448     -3.966000285396
H       17.820001282341     -8.705000626419     -5.122000368583
O       12.786000920090     -5.581000401613     -7.412000533373
H       13.556000975500     -5.900000424569     -6.859000493579
H       12.011000864321     -6.175000444358     -7.198000517973
