 xtb: 6.5.1 (b24c23e)
          11092212343D

257252  0     0  0            999 V2000
    4.1702    0.0341    0.6719 H   0  0  0  0  0  0  0  0  0  0  0  0
    3.6430   -0.5870    0.2140 N   0  0  0  0  0  0  0  0  0  0  0  0
    3.3300   -1.8730    0.8270 C   0  0  0  0  0  0  0  0  0  0  0  0
    4.5560   -2.6730    1.2810 C   0  0  0  0  0  0  0  0  0  0  0  0
    4.5390   -3.1740    2.3840 O   0  0  0  0  0  0  0  0  0  0  0  0
    2.3610   -2.7040   -0.0220 C   0  0  0  0  0  0  0  0  0  0  0  0
    2.8050   -2.9330   -1.3880 C   0  0  0  0  0  0  0  0  0  0  0  0
    2.4900   -2.1880   -2.5000 C   0  0  0  0  0  0  0  0  0  0  0  0
    3.5540   -4.0530   -1.8550 C   0  0  0  0  0  0  0  0  0  0  0  0
    3.1430   -2.6970   -3.6010 N   0  0  0  0  0  0  0  0  0  0  0  0
    3.7320   -3.8860   -3.2490 C   0  0  0  0  0  0  0  0  0  0  0  0
    4.0830   -5.1910   -1.2350 C   0  0  0  0  0  0  0  0  0  0  0  0
    4.4470   -4.7960   -4.0190 C   0  0  0  0  0  0  0  0  0  0  0  0
    4.8200   -6.0770   -2.0020 C   0  0  0  0  0  0  0  0  0  0  0  0
    5.0020   -5.8750   -3.3700 C   0  0  0  0  0  0  0  0  0  0  0  0
    3.3200   -0.2940   -0.7150 H   0  0  0  0  0  0  0  0  0  0  0  0
    2.7670   -1.6910    1.6560 H   0  0  0  0  0  0  0  0  0  0  0  0
    2.2410   -3.5910    0.4240 H   0  0  0  0  0  0  0  0  0  0  0  0
    1.4840   -2.2230   -0.0500 H   0  0  0  0  0  0  0  0  0  0  0  0
    1.8830   -1.4020   -2.5080 H   0  0  0  0  0  0  0  0  0  0  0  0
    3.1820   -2.2740   -4.5010 H   0  0  0  0  0  0  0  0  0  0  0  0
    3.9360   -5.3630   -0.2660 H   0  0  0  0  0  0  0  0  0  0  0  0
    4.5470   -4.6620   -5.0080 H   0  0  0  0  0  0  0  0  0  0  0  0
    5.2260   -6.8750   -1.5610 H   0  0  0  0  0  0  0  0  0  0  0  0
    5.5510   -6.5330   -3.8890 H   0  0  0  0  0  0  0  0  0  0  0  0
    5.6270   -2.7880    0.4690 N   0  0  0  0  0  0  0  0  0  0  0  0
    6.7730   -3.5730    0.9380 C   0  0  0  0  0  0  0  0  0  0  0  0
    7.4540   -3.0310    2.1770 C   0  0  0  0  0  0  0  0  0  0  0  0
    8.3270   -3.7260    2.7580 O   0  0  0  0  0  0  0  0  0  0  0  0
    7.7640   -3.4960   -0.2340 C   0  0  0  0  0  0  0  0  0  0  0  0
    7.0350   -2.8640   -1.3680 C   0  0  0  0  0  0  0  0  0  0  0  0
    5.9760   -2.0280   -0.7480 C   0  0  0  0  0  0  0  0  0  0  0  0
    6.4940   -4.5500    1.0780 H   0  0  0  0  0  0  0  0  0  0  0  0
    8.5730   -2.9480    0.0270 H   0  0  0  0  0  0  0  0  0  0  0  0
    8.0880   -4.4210   -0.4810 H   0  0  0  0  0  0  0  0  0  0  0  0
    7.6660   -2.3040   -1.9220 H   0  0  0  0  0  0  0  0  0  0  0  0
    6.6380   -3.5720   -1.9670 H   0  0  0  0  0  0  0  0  0  0  0  0
    6.3110   -1.1180   -0.5020 H   0  0  0  0  0  0  0  0  0  0  0  0
    5.1740   -1.9370   -1.3400 H   0  0  0  0  0  0  0  0  0  0  0  0
    7.1890   -1.7570    2.4900 N   0  0  0  0  0  0  0  0  0  0  0  0
    7.8530   -1.0950    3.6250 C   0  0  0  0  0  0  0  0  0  0  0  0
    6.9400   -0.9570    4.8150 C   0  0  0  0  0  0  0  0  0  0  0  0
    7.3410   -0.3560    5.7790 O   0  0  0  0  0  0  0  0  0  0  0  0
    8.3940    0.2790    3.2350 C   0  0  0  0  0  0  0  0  0  0  0  0
    9.2750    0.2520    1.9900 C   0  0  0  0  0  0  0  0  0  0  0  0
   10.6060   -0.0280    2.0850 C   0  0  0  0  0  0  0  0  0  0  0  0
    8.7140    0.3810    0.7390 C   0  0  0  0  0  0  0  0  0  0  0  0
   11.4290    0.0000    0.9550 C   0  0  0  0  0  0  0  0  0  0  0  0
    9.5010    0.3390   -0.3970 C   0  0  0  0  0  0  0  0  0  0  0  0
   10.8500    0.1240   -0.2900 C   0  0  0  0  0  0  0  0  0  0  0  0
    6.4970   -1.2910    1.8830 H   0  0  0  0  0  0  0  0  0  0  0  0
    8.6170   -1.6990    3.8980 H   0  0  0  0  0  0  0  0  0  0  0  0
    7.6300    0.8700    3.0430 H   0  0  0  0  0  0  0  0  0  0  0  0
    8.9440    0.6170    3.9790 H   0  0  0  0  0  0  0  0  0  0  0  0
   11.0180   -0.2600    2.9660 H   0  0  0  0  0  0  0  0  0  0  0  0
    7.7230    0.5060    0.6480 H   0  0  0  0  0  0  0  0  0  0  0  0
   12.4210   -0.0690    1.0650 H   0  0  0  0  0  0  0  0  0  0  0  0
    9.0680    0.4710   -1.3080 H   0  0  0  0  0  0  0  0  0  0  0  0
   11.4220    0.0550   -1.1120 H   0  0  0  0  0  0  0  0  0  0  0  0
    6.0109   -1.4302    4.7836 H   0  0  0  0  0  0  0  0  0  0  0  0
    9.9896   -6.8568    7.2265 H   0  0  0  0  0  0  0  0  0  0  0  0
   10.8200   -6.9170    6.8050 N   0  0  0  0  0  0  0  0  0  0  0  0
   11.0230   -7.8850    5.7400 C   0  0  0  0  0  0  0  0  0  0  0  0
   10.8690   -9.3050    6.2970 C   0  0  0  0  0  0  0  0  0  0  0  0
   11.6220   -9.7080    7.1930 O   0  0  0  0  0  0  0  0  0  0  0  0
   12.3990   -7.7220    5.0960 C   0  0  0  0  0  0  0  0  0  0  0  0
   12.6100   -8.8220    4.0660 C   0  0  0  0  0  0  0  0  0  0  0  0
   12.4940   -6.3440    4.4610 C   0  0  0  0  0  0  0  0  0  0  0  0
   11.5380   -6.2690    7.1470 H   0  0  0  0  0  0  0  0  0  0  0  0
   10.3120   -7.7510    5.0480 H   0  0  0  0  0  0  0  0  0  0  0  0
   13.0860   -7.8510    5.8010 H   0  0  0  0  0  0  0  0  0  0  0  0
   12.1540   -8.5720    3.2120 H   0  0  0  0  0  0  0  0  0  0  0  0
   13.5890   -8.9390    3.8980 H   0  0  0  0  0  0  0  0  0  0  0  0
   12.2260   -9.6790    4.4090 H   0  0  0  0  0  0  0  0  0  0  0  0
   12.0990   -5.6660    5.0810 H   0  0  0  0  0  0  0  0  0  0  0  0
   13.4550   -6.1240    4.2900 H   0  0  0  0  0  0  0  0  0  0  0  0
   11.9900   -6.3420    3.5970 H   0  0  0  0  0  0  0  0  0  0  0  0
   10.1034   -9.8898    5.8757 H   0  0  0  0  0  0  0  0  0  0  0  0
    8.8769  -15.2003    1.8684 H   0  0  0  0  0  0  0  0  0  0  0  0
    9.4980  -14.4980    1.8320 N   0  0  0  0  0  0  0  0  0  0  0  0
    9.9590  -13.9390    0.5740 C   0  0  0  0  0  0  0  0  0  0  0  0
   11.0770  -14.7970   -0.0450 C   0  0  0  0  0  0  0  0  0  0  0  0
   11.5120  -14.5270   -1.1610 O   0  0  0  0  0  0  0  0  0  0  0  0
   10.4260  -12.4840    0.8020 C   0  0  0  0  0  0  0  0  0  0  0  0
    9.3700  -11.3660    0.9720 C   0  0  0  0  0  0  0  0  0  0  0  0
    9.9890  -10.0780    1.5020 C   0  0  0  0  0  0  0  0  0  0  0  0
    8.6460  -11.0770   -0.3510 C   0  0  0  0  0  0  0  0  0  0  0  0
    9.8190  -14.1640    2.7650 H   0  0  0  0  0  0  0  0  0  0  0  0
    9.1900  -13.9170   -0.0770 H   0  0  0  0  0  0  0  0  0  0  0  0
   10.9960  -12.4760    1.6330 H   0  0  0  0  0  0  0  0  0  0  0  0
   11.0030  -12.2250    0.0190 H   0  0  0  0  0  0  0  0  0  0  0  0
    8.6670  -11.6880    1.6110 H   0  0  0  0  0  0  0  0  0  0  0  0
   10.6870   -9.7560    0.8620 H   0  0  0  0  0  0  0  0  0  0  0  0
    9.2780   -9.3820    1.5980 H   0  0  0  0  0  0  0  0  0  0  0  0
   10.4080  -10.2520    2.3930 H   0  0  0  0  0  0  0  0  0  0  0  0
    8.1860  -11.9070   -0.6610 H   0  0  0  0  0  0  0  0  0  0  0  0
    7.9740  -10.3530   -0.2050 H   0  0  0  0  0  0  0  0  0  0  0  0
    9.3140  -10.7860   -1.0330 H   0  0  0  0  0  0  0  0  0  0  0  0
   11.4276  -15.6082    0.5288 H   0  0  0  0  0  0  0  0  0  0  0  0
   14.0047  -15.6012    0.2541 H   0  0  0  0  0  0  0  0  0  0  0  0
   14.2400  -14.9780    0.9200 N   0  0  0  0  0  0  0  0  0  0  0  0
   15.4920  -14.1980    0.9350 C   0  0  0  0  0  0  0  0  0  0  0  0
   16.3400  -14.5860    2.1380 C   0  0  0  0  0  0  0  0  0  0  0  0
   16.5480  -13.8120    3.0810 O   0  0  0  0  0  0  0  0  0  0  0  0
   15.2120  -12.6900    0.9600 C   0  0  0  0  0  0  0  0  0  0  0  0
   14.2090  -12.2150   -0.0940 C   0  0  0  0  0  0  0  0  0  0  0  0
   13.8680  -10.7420    0.0870 C   0  0  0  0  0  0  0  0  0  0  0  0
   14.7510  -12.4920   -1.4910 C   0  0  0  0  0  0  0  0  0  0  0  0
   13.5120  -14.8820    1.6770 H   0  0  0  0  0  0  0  0  0  0  0  0
   16.0030  -14.4090    0.0990 H   0  0  0  0  0  0  0  0  0  0  0  0
   14.8400  -12.4650    1.8480 H   0  0  0  0  0  0  0  0  0  0  0  0
   16.0640  -12.2190    0.7950 H   0  0  0  0  0  0  0  0  0  0  0  0
   13.3720  -12.7620   -0.0150 H   0  0  0  0  0  0  0  0  0  0  0  0
   14.7000  -10.1940    0.0020 H   0  0  0  0  0  0  0  0  0  0  0  0
   13.2120  -10.4620   -0.6150 H   0  0  0  0  0  0  0  0  0  0  0  0
   13.4670  -10.6010    0.9920 H   0  0  0  0  0  0  0  0  0  0  0  0
   14.9030  -13.4750   -1.6010 H   0  0  0  0  0  0  0  0  0  0  0  0
   14.0900  -12.1790   -2.1730 H   0  0  0  0  0  0  0  0  0  0  0  0
   15.6160  -12.0050   -1.6160 H   0  0  0  0  0  0  0  0  0  0  0  0
   16.7377  -15.5559    2.1152 H   0  0  0  0  0  0  0  0  0  0  0  0
   21.3101   -3.5344   -0.4266 H   0  0  0  0  0  0  0  0  0  0  0  0
   20.4720   -3.8670   -0.1990 N   0  0  0  0  0  0  0  0  0  0  0  0
   20.1030   -5.2410   -0.5330 C   0  0  0  0  0  0  0  0  0  0  0  0
   19.7650   -5.4150   -2.0330 C   0  0  0  0  0  0  0  0  0  0  0  0
   20.1460   -6.4120   -2.6480 O   0  0  0  0  0  0  0  0  0  0  0  0
   18.9540   -5.7570    0.3810 C   0  0  0  0  0  0  0  0  0  0  0  0
   18.6060   -7.2270    0.1370 C   0  0  0  0  0  0  0  0  0  0  0  0
   19.3340   -8.2480    0.7370 C   0  0  0  0  0  0  0  0  0  0  0  0
   17.6380   -7.5920   -0.8080 C   0  0  0  0  0  0  0  0  0  0  0  0
   19.1130   -9.5820    0.4210 C   0  0  0  0  0  0  0  0  0  0  0  0
   17.3950   -8.9270   -1.1190 C   0  0  0  0  0  0  0  0  0  0  0  0
   18.1330   -9.9180   -0.4990 C   0  0  0  0  0  0  0  0  0  0  0  0
   17.9050  -11.2480   -0.8140 O   0  0  0  0  0  0  0  0  0  0  0  0
   19.8500   -3.2080    0.2900 H   0  0  0  0  0  0  0  0  0  0  0  0
   20.8880   -5.8430   -0.3270 H   0  0  0  0  0  0  0  0  0  0  0  0
   19.2440   -5.6580    1.3210 H   0  0  0  0  0  0  0  0  0  0  0  0
   18.1490   -5.2130    0.1950 H   0  0  0  0  0  0  0  0  0  0  0  0
   20.0390   -8.0180    1.4160 H   0  0  0  0  0  0  0  0  0  0  0  0
   17.1120   -6.8780   -1.2660 H   0  0  0  0  0  0  0  0  0  0  0  0
   19.6600  -10.2990    0.8580 H   0  0  0  0  0  0  0  0  0  0  0  0
   16.6910   -9.1650   -1.7870 H   0  0  0  0  0  0  0  0  0  0  0  0
   17.1760  -11.2870   -1.5090 H   0  0  0  0  0  0  0  0  0  0  0  0
   19.0930   -4.4250   -2.6220 N   0  0  0  0  0  0  0  0  0  0  0  0
   18.7870   -4.4220   -4.0410 C   0  0  0  0  0  0  0  0  0  0  0  0
   19.7700   -3.6230   -4.8800 C   0  0  0  0  0  0  0  0  0  0  0  0
   20.8830   -3.3420   -4.4550 O   0  0  0  0  0  0  0  0  0  0  0  0
   17.3360   -3.9640   -4.1770 C   0  0  0  0  0  0  0  0  0  0  0  0
   16.4150   -4.7850   -3.2870 C   0  0  0  0  0  0  0  0  0  0  0  0
   16.3930   -6.0020   -3.4170 O   0  0  0  0  0  0  0  0  0  0  0  0
   15.8440   -4.1650   -2.2490 N   0  0  0  0  0  0  0  0  0  0  0  0
   18.8090   -3.6560   -1.9720 H   0  0  0  0  0  0  0  0  0  0  0  0
   18.8410   -5.3870   -4.3610 H   0  0  0  0  0  0  0  0  0  0  0  0
   17.2760   -3.0150   -3.9020 H   0  0  0  0  0  0  0  0  0  0  0  0
   17.0540   -4.0830   -5.1180 H   0  0  0  0  0  0  0  0  0  0  0  0
   16.0410   -3.1900   -2.1060 H   0  0  0  0  0  0  0  0  0  0  0  0
   15.2410   -4.6570   -1.6380 H   0  0  0  0  0  0  0  0  0  0  0  0
   19.5028   -3.4438   -5.8735 H   0  0  0  0  0  0  0  0  0  0  0  0
   11.5143   -2.0916   -7.3552 H   0  0  0  0  0  0  0  0  0  0  0  0
   11.8910   -2.6440   -6.7040 N   0  0  0  0  0  0  0  0  0  0  0  0
   11.8240   -2.2670   -5.2900 C   0  0  0  0  0  0  0  0  0  0  0  0
   12.6020   -0.9640   -5.0410 C   0  0  0  0  0  0  0  0  0  0  0  0
   12.2370   -0.1530   -4.1870 O   0  0  0  0  0  0  0  0  0  0  0  0
   12.2860   -3.4180   -4.3500 C   0  0  0  0  0  0  0  0  0  0  0  0
   12.1620   -3.0270   -2.8590 C   0  0  0  0  0  0  0  0  0  0  0  0
   13.7260   -3.8200   -4.5900 C   0  0  0  0  0  0  0  0  0  0  0  0
   10.7520   -2.7720   -2.4030 C   0  0  0  0  0  0  0  0  0  0  0  0
   12.3360   -3.5010   -7.0510 H   0  0  0  0  0  0  0  0  0  0  0  0
   10.8630   -2.0630   -5.0970 H   0  0  0  0  0  0  0  0  0  0  0  0
   11.6900   -4.2000   -4.5110 H   0  0  0  0  0  0  0  0  0  0  0  0
   12.5600   -3.7660   -2.3150 H   0  0  0  0  0  0  0  0  0  0  0  0
   12.7080   -2.2000   -2.7170 H   0  0  0  0  0  0  0  0  0  0  0  0
   13.9620   -4.5950   -4.0050 H   0  0  0  0  0  0  0  0  0  0  0  0
   13.8480   -4.0810   -5.5470 H   0  0  0  0  0  0  0  0  0  0  0  0
   14.3300   -3.0520   -4.3790 H   0  0  0  0  0  0  0  0  0  0  0  0
   10.2020   -3.5970   -2.5350 H   0  0  0  0  0  0  0  0  0  0  0  0
   10.7520   -2.5260   -1.4330 H   0  0  0  0  0  0  0  0  0  0  0  0
   10.3570   -2.0220   -2.9350 H   0  0  0  0  0  0  0  0  0  0  0  0
   13.4446   -0.8115   -5.6486 H   0  0  0  0  0  0  0  0  0  0  0  0
   10.9405    2.6361   -6.6574 H   0  0  0  0  0  0  0  0  0  0  0  0
   10.5610    1.9450   -6.1610 N   0  0  0  0  0  0  0  0  0  0  0  0
    9.5740    2.2140   -5.1170 C   0  0  0  0  0  0  0  0  0  0  0  0
   10.2170    3.0050   -3.9810 C   0  0  0  0  0  0  0  0  0  0  0  0
    9.7070    4.0410   -3.5750 O   0  0  0  0  0  0  0  0  0  0  0  0
    9.0380    0.9150   -4.5670 C   0  0  0  0  0  0  0  0  0  0  0  0
    8.2690    0.1390   -5.6020 C   0  0  0  0  0  0  0  0  0  0  0  0
    8.0600   -1.5940   -5.1850 S   0  0  0  0  0  0  0  0  0  0  0  0
    6.4060   -1.5080   -4.4840 C   0  0  0  0  0  0  0  0  0  0  0  0
   10.8910    0.9950   -6.4070 H   0  0  0  0  0  0  0  0  0  0  0  0
    8.8450    2.7760   -5.5120 H   0  0  0  0  0  0  0  0  0  0  0  0
    9.8020    0.3500   -4.2440 H   0  0  0  0  0  0  0  0  0  0  0  0
    8.4290    1.1080   -3.7930 H   0  0  0  0  0  0  0  0  0  0  0  0
    7.3520    0.5930   -5.7390 H   0  0  0  0  0  0  0  0  0  0  0  0
    8.7470    0.2390   -6.5110 H   0  0  0  0  0  0  0  0  0  0  0  0
    5.8250   -2.1960   -4.9180 H   0  0  0  0  0  0  0  0  0  0  0  0
    6.4530   -1.6820   -3.5000 H   0  0  0  0  0  0  0  0  0  0  0  0
    6.0240   -0.5980   -4.6450 H   0  0  0  0  0  0  0  0  0  0  0  0
   11.1233    2.6458   -3.6171 H   0  0  0  0  0  0  0  0  0  0  0  0
    8.7771   -5.6885   -3.6495 C   0  0  0  0  0  0  0  0  0  0  0  0
    8.4654   -5.3885   -2.6626 H   0  0  0  0  0  0  0  0  0  0  0  0
    8.0283   -5.2634   -4.7258 C   0  0  0  0  0  0  0  0  0  0  0  0
    7.1580   -4.6463   -4.5838 H   0  0  0  0  0  0  0  0  0  0  0  0
    8.4594   -5.5544   -6.0156 C   0  0  0  0  0  0  0  0  0  0  0  0
    7.4386   -4.9466   -7.2540 Cl  0  0  0  0  0  0  0  0  0  0  0  0
    9.6324   -6.2856   -6.2545 C   0  0  0  0  0  0  0  0  0  0  0  0
    9.9306   -6.5069   -7.2658 H   0  0  0  0  0  0  0  0  0  0  0  0
   10.3600   -6.7283   -5.1453 C   0  0  0  0  0  0  0  0  0  0  0  0
   11.2504   -7.3252   -5.2587 H   0  0  0  0  0  0  0  0  0  0  0  0
    9.9348   -6.4421   -3.8346 C   0  0  0  0  0  0  0  0  0  0  0  0
   10.6729   -6.9244   -2.6491 C   0  0  0  0  0  0  0  0  0  0  0  0
   11.9241   -7.0889   -2.7735 N   0  0  0  0  0  0  0  0  0  0  0  0
    9.8862   -7.0387   -1.3950 C   0  0  0  0  0  0  0  0  0  0  0  0
    8.5672   -7.4978   -1.4821 C   0  0  0  0  0  0  0  0  0  0  0  0
    8.2397   -7.9308   -2.4156 H   0  0  0  0  0  0  0  0  0  0  0  0
    7.7001   -7.4374   -0.4015 C   0  0  0  0  0  0  0  0  0  0  0  0
    6.7160   -7.8676   -0.4864 H   0  0  0  0  0  0  0  0  0  0  0  0
    8.1260   -6.8776    0.8140 C   0  0  0  0  0  0  0  0  0  0  0  0
    7.4688   -6.8758    1.6663 H   0  0  0  0  0  0  0  0  0  0  0  0
    9.4197   -6.3943    0.8998 C   0  0  0  0  0  0  0  0  0  0  0  0
    9.7760   -5.9483    1.8151 H   0  0  0  0  0  0  0  0  0  0  0  0
   10.3205   -6.4388   -0.1847 C   0  0  0  0  0  0  0  0  0  0  0  0
   11.6697   -5.8895   -0.0718 C   0  0  0  0  0  0  0  0  0  0  0  0
   12.2494   -4.7649    0.5795 C   0  0  0  0  0  0  0  0  0  0  0  0
   11.6326   -3.6737    1.3957 C   0  0  0  0  0  0  0  0  0  0  0  0
   11.3586   -4.0520    2.3766 H   0  0  0  0  0  0  0  0  0  0  0  0
   10.7567   -3.2623    0.9107 H   0  0  0  0  0  0  0  0  0  0  0  0
   12.3870   -2.9036    1.5415 H   0  0  0  0  0  0  0  0  0  0  0  0
   13.5395   -4.7236    0.3574 N   0  0  0  0  0  0  0  0  0  0  0  0
   13.8664   -5.7400   -0.4948 O   0  0  0  0  0  0  0  0  0  0  0  0
   12.7420   -6.4075   -0.7576 C   0  0  0  0  0  0  0  0  0  0  0  0
   12.7033   -7.5798   -1.6774 C   0  0  0  0  0  0  0  0  0  0  0  0
   12.1660   -8.4031   -1.1759 H   0  0  0  0  0  0  0  0  0  0  0  0
   14.0704   -8.0504   -2.1217 C   0  0  0  0  0  0  0  0  0  0  0  0
   14.5949   -8.4824   -1.2741 H   0  0  0  0  0  0  0  0  0  0  0  0
   14.6525   -7.2104   -2.5004 H   0  0  0  0  0  0  0  0  0  0  0  0
   13.9065   -9.1037   -3.2296 C   0  0  0  0  0  0  0  0  0  0  0  0
   12.9068   -9.7711   -3.3989 O   0  0  0  0  0  0  0  0  0  0  0  0
   15.0327   -9.2482   -3.9560 N   0  0  0  0  0  0  0  0  0  0  0  0
   14.9964   -9.8067   -4.7938 H   0  0  0  0  0  0  0  0  0  0  0  0
   15.7536   -8.5383   -3.9220 H   0  0  0  0  0  0  0  0  0  0  0  0
   14.1590   -1.3060    3.2800 O   0  0  0  0  0  0  0  0  0  0  0  0
   14.6000   -0.4270    3.4620 H   0  0  0  0  0  0  0  0  0  0  0  0
   14.8260   -2.0400    3.1520 H   0  0  0  0  0  0  0  0  0  0  0  0
   15.0770   -6.5880   -5.7040 O   0  0  0  0  0  0  0  0  0  0  0  0
   15.5640   -6.3710   -4.8580 H   0  0  0  0  0  0  0  0  0  0  0  0
   14.6440   -7.4890   -5.6670 H   0  0  0  0  0  0  0  0  0  0  0  0
   10.1260   -3.4230    5.0120 O   0  0  0  0  0  0  0  0  0  0  0  0
    9.4410   -3.8100    5.6290 H   0  0  0  0  0  0  0  0  0  0  0  0
   10.1970   -3.9410    4.1590 H   0  0  0  0  0  0  0  0  0  0  0  0
    8.3950   -6.2730    4.0170 O   0  0  0  0  0  0  0  0  0  0  0  0
    8.3710   -5.3770    3.5740 H   0  0  0  0  0  0  0  0  0  0  0  0
    8.7470   -6.9830    3.4070 H   0  0  0  0  0  0  0  0  0  0  0  0
   18.1010   -8.3270   -4.2400 O   0  0  0  0  0  0  0  0  0  0  0  0
   17.5320   -7.5520   -3.9660 H   0  0  0  0  0  0  0  0  0  0  0  0
   17.8200   -8.7050   -5.1220 H   0  0  0  0  0  0  0  0  0  0  0  0
   12.7860   -5.5810   -7.4120 O   0  0  0  0  0  0  0  0  0  0  0  0
   13.5560   -5.9000   -6.8590 H   0  0  0  0  0  0  0  0  0  0  0  0
   12.0110   -6.1750   -7.1980 H   0  0  0  0  0  0  0  0  0  0  0  0
  1  2  1  0  0  0  0
  2  3  1  0  0  0  0
  3  4  1  0  0  0  0
  4  5  2  0  0  0  0
  3  6  1  0  0  0  0
  6  7  1  0  0  0  0
  7  8  2  0  0  0  0
  7  9  4  0  0  0  0
  8 10  1  0  0  0  0
  9 11  4  0  0  0  0
 10 11  1  0  0  0  0
  9 12  4  0  0  0  0
 11 13  4  0  0  0  0
 12 14  4  0  0  0  0
 13 15  4  0  0  0  0
 14 15  4  0  0  0  0
  2 16  1  0  0  0  0
  3 17  1  0  0  0  0
  6 18  1  0  0  0  0
  6 19  1  0  0  0  0
  8 20  1  0  0  0  0
 10 21  1  0  0  0  0
 12 22  1  0  0  0  0
 13 23  1  0  0  0  0
 14 24  1  0  0  0  0
 15 25  1  0  0  0  0
  4 26  4  0  0  0  0
 26 27  1  0  0  0  0
 27 28  1  0  0  0  0
 28 29  2  0  0  0  0
 27 30  1  0  0  0  0
 30 31  1  0  0  0  0
 26 32  1  0  0  0  0
 31 32  1  0  0  0  0
 27 33  1  0  0  0  0
 30 34  1  0  0  0  0
 30 35  1  0  0  0  0
 31 36  1  0  0  0  0
 31 37  1  0  0  0  0
 32 38  1  0  0  0  0
 32 39  1  0  0  0  0
 28 40  4  0  0  0  0
 40 41  1  0  0  0  0
 41 42  1  0  0  0  0
 42 43  2  0  0  0  0
 41 44  1  0  0  0  0
 44 45  1  0  0  0  0
 45 46  4  0  0  0  0
 45 47  4  0  0  0  0
 46 48  4  0  0  0  0
 47 49  4  0  0  0  0
 48 50  4  0  0  0  0
 49 50  4  0  0  0  0
 40 51  1  0  0  0  0
 41 52  1  0  0  0  0
 44 53  1  0  0  0  0
 44 54  1  0  0  0  0
 46 55  1  0  0  0  0
 47 56  1  0  0  0  0
 48 57  1  0  0  0  0
 49 58  1  0  0  0  0
 50 59  1  0  0  0  0
 42 60  1  0  0  0  0
 61 62  1  0  0  0  0
 62 63  1  0  0  0  0
 63 64  1  0  0  0  0
 64 65  2  0  0  0  0
 63 66  1  0  0  0  0
 66 67  1  0  0  0  0
 66 68  1  0  0  0  0
 62 69  1  0  0  0  0
 63 70  1  0  0  0  0
 66 71  1  0  0  0  0
 67 72  1  0  0  0  0
 67 73  1  0  0  0  0
 67 74  1  0  0  0  0
 68 75  1  0  0  0  0
 68 76  1  0  0  0  0
 68 77  1  0  0  0  0
 64 78  1  0  0  0  0
 79 80  1  0  0  0  0
 80 81  1  0  0  0  0
 81 82  1  0  0  0  0
 82 83  2  0  0  0  0
 81 84  1  0  0  0  0
 84 85  1  0  0  0  0
 85 86  1  0  0  0  0
 85 87  1  0  0  0  0
 80 88  1  0  0  0  0
 81 89  1  0  0  0  0
 84 90  1  0  0  0  0
 84 91  1  0  0  0  0
 85 92  1  0  0  0  0
 86 93  1  0  0  0  0
 86 94  1  0  0  0  0
 86 95  1  0  0  0  0
 87 96  1  0  0  0  0
 87 97  1  0  0  0  0
 87 98  1  0  0  0  0
 82 99  1  0  0  0  0
100101  1  0  0  0  0
101102  1  0  0  0  0
102103  1  0  0  0  0
103104  2  0  0  0  0
102105  1  0  0  0  0
105106  1  0  0  0  0
106107  1  0  0  0  0
106108  1  0  0  0  0
101109  1  0  0  0  0
102110  1  0  0  0  0
105111  1  0  0  0  0
105112  1  0  0  0  0
106113  1  0  0  0  0
107114  1  0  0  0  0
107115  1  0  0  0  0
107116  1  0  0  0  0
108117  1  0  0  0  0
108118  1  0  0  0  0
108119  1  0  0  0  0
103120  1  0  0  0  0
121122  1  0  0  0  0
122123  1  0  0  0  0
123124  1  0  0  0  0
124125  2  0  0  0  0
123126  1  0  0  0  0
126127  1  0  0  0  0
127128  4  0  0  0  0
127129  4  0  0  0  0
128130  4  0  0  0  0
129131  4  0  0  0  0
130132  4  0  0  0  0
131132  4  0  0  0  0
132133  1  0  0  0  0
122134  1  0  0  0  0
123135  1  0  0  0  0
126136  1  0  0  0  0
126137  1  0  0  0  0
128138  1  0  0  0  0
129139  1  0  0  0  0
130140  1  0  0  0  0
131141  1  0  0  0  0
133142  1  0  0  0  0
124143  4  0  0  0  0
143144  1  0  0  0  0
144145  1  0  0  0  0
145146  2  0  0  0  0
144147  1  0  0  0  0
147148  1  0  0  0  0
148149  2  0  0  0  0
148150  4  0  0  0  0
143151  1  0  0  0  0
144152  1  0  0  0  0
147153  1  0  0  0  0
147154  1  0  0  0  0
150155  1  0  0  0  0
150156  1  0  0  0  0
145157  1  0  0  0  0
158159  1  0  0  0  0
159160  1  0  0  0  0
160161  1  0  0  0  0
161162  2  0  0  0  0
160163  1  0  0  0  0
163164  1  0  0  0  0
163165  1  0  0  0  0
164166  1  0  0  0  0
159167  1  0  0  0  0
160168  1  0  0  0  0
163169  1  0  0  0  0
164170  1  0  0  0  0
164171  1  0  0  0  0
165172  1  0  0  0  0
165173  1  0  0  0  0
165174  1  0  0  0  0
166175  1  0  0  0  0
166176  1  0  0  0  0
166177  1  0  0  0  0
161178  1  0  0  0  0
179180  1  0  0  0  0
180181  1  0  0  0  0
181182  1  0  0  0  0
182183  2  0  0  0  0
181184  1  0  0  0  0
184185  1  0  0  0  0
185186  1  0  0  0  0
186187  1  0  0  0  0
180188  1  0  0  0  0
181189  1  0  0  0  0
184190  1  0  0  0  0
184191  1  0  0  0  0
185192  1  0  0  0  0
185193  1  0  0  0  0
187194  1  0  0  0  0
187195  1  0  0  0  0
187196  1  0  0  0  0
182197  1  0  0  0  0
198199  1  0  0  0  0
198200  4  0  0  0  0
200201  1  0  0  0  0
200202  4  0  0  0  0
202203  1  0  0  0  0
202204  4  0  0  0  0
204205  1  0  0  0  0
204206  4  0  0  0  0
206207  1  0  0  0  0
198208  4  0  0  0  0
206208  4  0  0  0  0
208209  1  0  0  0  0
209210  2  0  0  0  0
209211  1  0  0  0  0
211212  4  0  0  0  0
212213  1  0  0  0  0
212214  4  0  0  0  0
214215  1  0  0  0  0
214216  4  0  0  0  0
216217  1  0  0  0  0
216218  4  0  0  0  0
218219  1  0  0  0  0
211220  4  0  0  0  0
218220  4  0  0  0  0
220221  1  0  0  0  0
221222  4  0  0  0  0
222223  1  0  0  0  0
223224  1  0  0  0  0
223225  1  0  0  0  0
223226  1  0  0  0  0
222227  2  0  0  0  0
227228  1  0  0  0  0
221229  4  0  0  0  0
228229  1  0  0  0  0
210230  1  0  0  0  0
229230  1  0  0  0  0
230231  1  0  0  0  0
230232  1  0  0  0  0
232233  1  0  0  0  0
232234  1  0  0  0  0
232235  1  0  0  0  0
235236  2  0  0  0  0
235237  4  0  0  0  0
237238  1  0  0  0  0
237239  1  0  0  0  0
240241  1  0  0  0  0
240242  1  0  0  0  0
243244  1  0  0  0  0
243245  1  0  0  0  0
246247  1  0  0  0  0
246248  1  0  0  0  0
249250  1  0  0  0  0
249251  1  0  0  0  0
252253  1  0  0  0  0
252254  1  0  0  0  0
255256  1  0  0  0  0
255257  1  0  0  0  0
M  END
