   36
Gau_xtb
C        5.736439172799     11.656639868821     23.585811627253
N        1.054243815864     11.125456100596     24.071392022196
O        4.251417635935     15.041914752428     25.403376568046
C        6.612584525847     12.679095882397     23.880665628471
N        2.226681290234     10.000835949668     25.612977473129
O        6.121288280492     10.513251446542     23.007298755623
C        6.158324513158     13.823442984746     24.529946655194
N       -1.665894739879     10.653386066626     26.534327999430
C        4.812870326338     13.926840592186     24.858030588803
N        0.456844852875      9.800032105218     27.256050051366
C        3.921909672224     12.896022808008     24.530690155247
N       -2.023468185610     11.486359206567     24.420515807319
C        4.350953673098     11.752899705748     23.891439319246
C        5.032125352116     16.027341183340     26.031897293275
C        3.447879158112     10.579869221336     23.553878334955
C        2.235970720902     10.529367117702     24.412250366724
C        0.197522334214     10.841730080179     25.115437517326
C        0.947096028154     10.182710492756     26.061417775399
C       -1.200978626423     10.985137120499     25.333769673037
C       -0.822832239212     10.073611034905     27.382794320487
C        7.490987999057     10.161380261221     22.983539343913
F       -1.331368525806      9.742422201072     28.568353885801
H        0.816144598730     11.389218059577     23.118982833660
H        7.664353131533     12.580397575295     23.639785511137
H        6.849257392878     14.625341712451     24.778784533100
H        2.883788407519     13.026695287411     24.801145534710
H       -3.021082827399     11.565467382260     24.631279462486
H       -1.714726733393     11.664809649409     23.475261349298
H        5.572901171030     16.626943456488     25.286135549610
H        4.335237981967     16.674968719944     26.563244941512
H        5.748506753667     15.589202371811     26.735630943917
H        3.979337786356      9.633902693263     23.695892135174
H        3.143238526190     10.621107684303     22.499956429114
H        7.942699651563     10.217437795255     23.979674625596
H        7.527384801676      9.121731426407     22.649772449895
H        8.040282648585     10.803336417416     22.283122133510
