   42
Gau_xtb
C        8.787126682328     -5.671812868148     -3.682325034983
H        8.484692750565     -5.375590206832     -2.684207013158
C        8.021182187210     -5.253237848027     -4.752134801967
H        7.138452133689     -4.644190414200     -4.611760791866
C        8.444620647682     -5.554836279730     -6.040924954710
Cl       7.428678804574     -4.938995705414     -7.283890284154
C        9.618941462186     -6.284740612255     -6.293557062889
H        9.909746733113     -6.498037867604     -7.318444916641
C       10.367798756075     -6.718971753502     -5.186979483259
H       11.279679301695     -7.289170414534     -5.333272583787
C        9.935219954946     -6.444386113743     -3.865257278147
C       10.673747378091     -6.893961536095     -2.655977011126
N       11.938393939096     -7.105734901334     -2.818831602845
C        9.881974031114     -7.051771297451     -1.381504329414
C        8.554894505617     -7.539508132549     -1.439357523577
H        8.201585630192     -7.975230403904     -2.359728189808
C        7.675558102339     -7.446420425850     -0.357209875705
H        6.684913361051     -7.857044425399     -0.447758832221
C        8.102493343061     -6.862476593829      0.848885761087
H        7.434423204987     -6.810587130095      1.694947501970
C        9.416289867604     -6.389994339829      0.925120906573
H        9.757060302125     -5.916820455779      1.834815552035
C       10.313412862161     -6.447155333942     -0.160451521546
C       11.672601279970     -5.893351504090     -0.065439204709
C       12.228203039951     -4.761465972639      0.596466402922
C       11.610138555474     -3.659606953348      1.410694781515
H       11.320254724614     -4.008924908485      2.400564732746
H       10.739027522789     -3.232050032581      0.926350646661
H       12.378607260774     -2.899429368645      1.547153881334
N       13.524228233214     -4.685571037177      0.383628127606
O       13.861148197459     -5.722305531781     -0.487317435068
C       12.733982796347     -6.401159480632     -0.751278594063
C       12.718302975219     -7.551262763395     -1.704673852670
H       12.195510847598     -8.369373562266     -1.191161485717
C       14.077150923003     -8.049730089265     -2.134599543608
H       14.600150960638     -8.481924020366     -1.284262412417
H       14.707726288379     -7.247521751537     -2.526435141804
C       13.924762452036     -9.109977035561     -3.237034682939
O       12.913578729271     -9.765210022712     -3.421028926180
N       15.077240304970     -9.298184109104     -3.942664543717
H       14.978429157859     -9.778038823635     -4.822226687011
H       15.735562892343     -8.531032953899     -3.957576414790
