 xtb: 6.5.1 (b24c23e)
          11092210533D

 42 45  0     0  0            999 V2000
    8.7871   -5.6718   -3.6823 C   0  0  0  0  0  0  0  0  0  0  0  0
    8.4847   -5.3756   -2.6842 H   0  0  0  0  0  0  0  0  0  0  0  0
    8.0212   -5.2532   -4.7521 C   0  0  0  0  0  0  0  0  0  0  0  0
    7.1385   -4.6442   -4.6118 H   0  0  0  0  0  0  0  0  0  0  0  0
    8.4446   -5.5548   -6.0409 C   0  0  0  0  0  0  0  0  0  0  0  0
    7.4287   -4.9390   -7.2839 Cl  0  0  0  0  0  0  0  0  0  0  0  0
    9.6189   -6.2847   -6.2936 C   0  0  0  0  0  0  0  0  0  0  0  0
    9.9097   -6.4980   -7.3184 H   0  0  0  0  0  0  0  0  0  0  0  0
   10.3678   -6.7190   -5.1870 C   0  0  0  0  0  0  0  0  0  0  0  0
   11.2797   -7.2892   -5.3333 H   0  0  0  0  0  0  0  0  0  0  0  0
    9.9352   -6.4444   -3.8653 C   0  0  0  0  0  0  0  0  0  0  0  0
   10.6737   -6.8940   -2.6560 C   0  0  0  0  0  0  0  0  0  0  0  0
   11.9384   -7.1057   -2.8188 N   0  0  0  0  0  0  0  0  0  0  0  0
    9.8820   -7.0518   -1.3815 C   0  0  0  0  0  0  0  0  0  0  0  0
    8.5549   -7.5395   -1.4394 C   0  0  0  0  0  0  0  0  0  0  0  0
    8.2016   -7.9752   -2.3597 H   0  0  0  0  0  0  0  0  0  0  0  0
    7.6756   -7.4464   -0.3572 C   0  0  0  0  0  0  0  0  0  0  0  0
    6.6849   -7.8570   -0.4478 H   0  0  0  0  0  0  0  0  0  0  0  0
    8.1025   -6.8625    0.8489 C   0  0  0  0  0  0  0  0  0  0  0  0
    7.4344   -6.8106    1.6949 H   0  0  0  0  0  0  0  0  0  0  0  0
    9.4163   -6.3900    0.9251 C   0  0  0  0  0  0  0  0  0  0  0  0
    9.7571   -5.9168    1.8348 H   0  0  0  0  0  0  0  0  0  0  0  0
   10.3134   -6.4472   -0.1605 C   0  0  0  0  0  0  0  0  0  0  0  0
   11.6726   -5.8934   -0.0654 C   0  0  0  0  0  0  0  0  0  0  0  0
   12.2282   -4.7615    0.5965 C   0  0  0  0  0  0  0  0  0  0  0  0
   11.6101   -3.6596    1.4107 C   0  0  0  0  0  0  0  0  0  0  0  0
   11.3203   -4.0089    2.4006 H   0  0  0  0  0  0  0  0  0  0  0  0
   10.7390   -3.2321    0.9264 H   0  0  0  0  0  0  0  0  0  0  0  0
   12.3786   -2.8994    1.5472 H   0  0  0  0  0  0  0  0  0  0  0  0
   13.5242   -4.6856    0.3836 N   0  0  0  0  0  0  0  0  0  0  0  0
   13.8611   -5.7223   -0.4873 O   0  0  0  0  0  0  0  0  0  0  0  0
   12.7340   -6.4012   -0.7513 C   0  0  0  0  0  0  0  0  0  0  0  0
   12.7183   -7.5513   -1.7047 C   0  0  0  0  0  0  0  0  0  0  0  0
   12.1955   -8.3694   -1.1912 H   0  0  0  0  0  0  0  0  0  0  0  0
   14.0772   -8.0497   -2.1346 C   0  0  0  0  0  0  0  0  0  0  0  0
   14.6002   -8.4819   -1.2843 H   0  0  0  0  0  0  0  0  0  0  0  0
   14.7077   -7.2475   -2.5264 H   0  0  0  0  0  0  0  0  0  0  0  0
   13.9248   -9.1100   -3.2370 C   0  0  0  0  0  0  0  0  0  0  0  0
   12.9136   -9.7652   -3.4210 O   0  0  0  0  0  0  0  0  0  0  0  0
   15.0772   -9.2982   -3.9427 N   0  0  0  0  0  0  0  0  0  0  0  0
   14.9784   -9.7780   -4.8222 H   0  0  0  0  0  0  0  0  0  0  0  0
   15.7356   -8.5310   -3.9576 H   0  0  0  0  0  0  0  0  0  0  0  0
  1  2  1  0  0  0  0
  1  3  4  0  0  0  0
  3  4  1  0  0  0  0
  3  5  4  0  0  0  0
  5  6  1  0  0  0  0
  5  7  4  0  0  0  0
  7  8  1  0  0  0  0
  7  9  4  0  0  0  0
  9 10  1  0  0  0  0
  1 11  4  0  0  0  0
  9 11  4  0  0  0  0
 11 12  1  0  0  0  0
 12 13  2  0  0  0  0
 12 14  1  0  0  0  0
 14 15  4  0  0  0  0
 15 16  1  0  0  0  0
 15 17  4  0  0  0  0
 17 18  1  0  0  0  0
 17 19  4  0  0  0  0
 19 20  1  0  0  0  0
 19 21  4  0  0  0  0
 21 22  1  0  0  0  0
 14 23  4  0  0  0  0
 21 23  4  0  0  0  0
 23 24  1  0  0  0  0
 24 25  4  0  0  0  0
 25 26  1  0  0  0  0
 26 27  1  0  0  0  0
 26 28  1  0  0  0  0
 26 29  1  0  0  0  0
 25 30  2  0  0  0  0
 30 31  1  0  0  0  0
 24 32  4  0  0  0  0
 31 32  1  0  0  0  0
 13 33  1  0  0  0  0
 32 33  1  0  0  0  0
 33 34  1  0  0  0  0
 33 35  1  0  0  0  0
 35 36  1  0  0  0  0
 35 37  1  0  0  0  0
 35 38  1  0  0  0  0
 38 39  2  0  0  0  0
 38 40  4  0  0  0  0
 40 41  1  0  0  0  0
 40 42  1  0  0  0  0
M  END
