   42
Gau_xtb
C        8.772471151274     -5.697277279980     -3.656924153155
H        8.457996208644     -5.416363529766     -2.663204441646
C        8.018631267027     -5.259785838498     -4.731474910480
H        7.143296124037     -4.643281024134     -4.592360230470
C        8.463042179007     -5.556341069838     -6.012876392691
Cl       7.407326783037     -4.930282394787     -7.292826094797
C        9.636388383442     -6.279421251872     -6.277658891745
H        9.927688114404     -6.481533996416     -7.301104465393
C       10.375805256651     -6.733489384547     -5.166117091758
H       11.278458501607     -7.320880046816     -5.287047540460
C        9.932472824748     -6.453532994401     -3.851570207162
C       10.678043258400     -6.931162158772     -2.656806781186
N       11.943377559455     -7.088133750068     -2.789585720741
C        9.889323611644     -7.048108807187     -1.388131689891
C        8.566602646459     -7.531331061960     -1.459192075005
H        8.230301672259     -7.985103204614     -2.384677071603
C        7.689005893307     -7.433196604898     -0.377888307193
H        6.694707531756     -7.852644425082     -0.453427202629
C        8.121270574413     -6.838951822136      0.829846979717
H        7.455227656484     -6.783377408137      1.679691900872
C        9.428075798452     -6.364063727963      0.912233615645
H        9.783108264000     -5.904343744881      1.826665801448
C       10.333768563626     -6.432726332904     -0.178760192864
C       11.693104031445     -5.880351983155     -0.068566944934
C       12.237436990615     -4.740091971101      0.602883673384
C       11.578589453204     -3.652797952858      1.411120951545
H       11.276649561476     -4.010193508577      2.397930502557
H       10.704501280304     -3.247684863706      0.902231464925
H       12.309325615789     -2.855537175486      1.568704052885
N       13.548144694935     -4.643605584157      0.419874890214
O       13.898087160117     -5.717207441415     -0.474470094143
C       12.759250518165     -6.403477820799     -0.738900233172
C       12.737412106594     -7.570547004783     -1.668246520048
H       12.206150268364     -8.398354714352     -1.173789954467
C       14.095563074327     -8.047975899139     -2.129174553217
H       14.643928943788     -8.472572929693     -1.285036662472
H       14.684788626728     -7.208819358752     -2.511416090723
C       13.936853062906     -9.100950404911     -3.230769872489
O       12.895857557996     -9.775524493454     -3.388418863833
N       15.043074002511     -9.255740956050     -3.996293877576
H       15.028125591436     -9.911262223222     -4.759569882502
H       15.836489399606     -8.632183541178     -3.926313272540
