  205
Gau_xtb
H       12.224141522381    -32.012722530503    -38.921211118381
N       12.444000895480    -31.197002244960    -38.520002771929
C       11.658000838918    -30.668002206893    -37.412002692196
C       10.254000737886    -30.276002178684    -37.855002724075
O        9.330000671394    -30.263002177749    -37.035002665067
C       12.370000890155    -29.464002120252    -36.794002647725
C       13.819000994426    -29.722002138818    -36.418002620667
S       13.989001006659    -30.959002227834    -35.120002527262
C       13.030000937649    -30.194002172783    -33.819002433641
H       13.269000954848    -30.721002210707    -38.922002800857
H       11.573000832802    -31.391002258921    -36.713002641896
H       12.342000888140    -28.696002064986    -37.450002694931
H       11.871000854246    -29.181002099887    -35.963002587925
H       14.328001031054    -30.008002159399    -37.262002681402
H       14.244001025009    -28.833002074845    -36.131002600014
H       12.261000882311    -30.787002215456    -33.573002415939
H       13.608000979242    -30.051002162493    -33.014002375713
H       12.678000912319    -29.311002109242    -34.134002456309
H       10.113304697515    -30.018976451304    -38.863455348629
H        7.079665159742    -33.159899550673    -37.742990617716
N        7.581000545535    -32.800002360313    -37.047002665931
C        7.242000521140    -33.009002375353    -35.649002565330
C        6.219000447524    -31.979002301233    -35.175002531220
O        5.933000426944    -30.986002229776    -35.848002579650
C        8.499000611594    -32.936002370100    -34.779002502723
C        9.610000691543    -33.844002435440    -35.230002535178
C        9.333000671610    -35.054002522513    -35.846002579506
C       10.934000786819    -33.485002409606    -35.036002521218
C       10.356000745226    -35.887002582456    -36.260002609297
C       11.961000860723    -34.314002469262    -35.447002550794
C       11.671000839854    -35.517002555831    -36.060002594905
H        8.405000604830    -32.235002319656    -37.357002688239
H        6.796000489045    -33.909002440118    -35.583002560580
H        8.834000635702    -32.005002303105    -34.808002504811
H        8.246000593389    -33.197002388882    -33.859002436520
H        8.386000603463    -35.330002542374    -35.995002590228
H       11.149000802291    -32.612002346785    -34.592002489267
H       10.133000729179    -36.764002645566    -36.706002641392
H       12.924000930021    -34.034002449113    -35.294002539783
H       12.411000893105    -36.122002599367    -36.361002616565
N        5.668000407874    -32.230002319296    -33.991002446019
C        4.782000344116    -31.298002252228    -33.314002397301
C        5.364000385998    -30.947002226970    -31.951002299218
O        6.197000445941    -31.674002279286    -31.401002259640
C        3.368000242364    -31.874002293678    -33.157002386003
O        3.441000247617    -33.169002386867    -32.547002342107
C        2.684000193143    -31.992002302169    -34.512002483510
H        5.930000426727    -33.163002386435    -33.588002417018
H        4.722000339799    -30.458002191781    -33.857002436376
H        2.828000203505    -31.264002249781    -32.542002341747
H        4.420000318067    -33.380002402051    -32.372002329514
H        1.697000122117    -32.113002310876    -34.385002474371
H        2.847000204872    -31.161002242370    -35.048002522081
H        3.050000219480    -32.781002358946    -35.010002519347
N        4.907000353112    -29.828002146446    -31.404002259856
C        5.520000397223    -29.266002106004    -30.208002173791
C        5.138000369734    -30.067002163645    -28.964002084272
O        4.001000287915    -30.530002196962    -28.843002075564
C        5.100000367000    -27.811002001301    -30.026002160694
O        5.753000413990    -27.239001960140    -28.907002080170
H        4.097000294823    -29.400002115647    -31.889002294757
H        6.520000469184    -29.320002109890    -30.312002181275
H        5.347000384774    -27.299001964457    -30.842002219414
H        4.117000296262    -27.776001998782    -29.880002150188
H        6.349000456879    -27.903002007921    -28.473002048939
N        6.074000437090    -30.249002176742    -28.027002016845
C        5.695000409817    -30.788002215528    -26.716001922504
C        5.031000362035    -29.757002141337    -25.829001858675
O        4.270000307273    -30.136002168610    -24.928001793838
C        7.034000506172    -31.245002248414    -26.124001879903
C        8.034000578133    -30.326002182282    -26.754001925239
C        7.532000542009    -30.081002164652    -28.157002026199
H        5.101000367072    -31.604002274248    -26.830001930708
H        7.033000506100    -31.145002241218    -25.130001808374
H        7.220000519557    -32.196002316849    -26.364001897174
H        8.093000582378    -29.464002120252    -26.241001888323
H        8.943000643545    -30.753002213009    -26.770001926390
H        7.754000557984    -29.158002098232    -28.466002048435
H        7.908000569066    -30.748002212650    -28.800002072470
N        5.294000380960    -28.470002048723    -26.055001874938
C        4.671000336129    -27.410001972445    -25.277001818952
C        3.330000239630    -26.975001941142    -25.845001859826
O        2.520000181341    -26.393001899261    -25.113001807151
C        5.589000402189    -26.188001884509    -25.204001813699
C        7.045000506964    -26.525001908759    -25.169001811181
C        7.680000552659    -26.790001927829    -23.970001724900
C        7.781000559927    -26.570001911998    -26.336001895159
C        9.026000649518    -27.099001950065    -23.936001722453
C        9.121000656354    -26.875001933946    -26.310001893288
C        9.748000701473    -27.141001953087    -25.109001806863
H        5.973000429822    -28.296002036202    -26.824001930276
H        4.488000322960    -27.789001999718    -24.355001752605
H        5.418000389884    -25.635001844714    -26.007001871484
H        5.365000386070    -25.694001848960    -24.376001754116
H        7.163000515455    -26.760001925670    -23.116001663445
H        7.330000527473    -26.378001898181    -27.212001958196
H        9.471000681541    -27.291001963881    -23.052001658840
H        9.650000694422    -26.903001935961    -27.179001955822
H       10.724000771707    -27.364001969134    -25.088001805352
H        3.134283401349    -27.181722939004    -26.853454484380
H        0.834061685728    -36.886784128882    -30.613988970492
N        1.717000123557    -36.585002632685    -30.663002206533
C        2.595000186738    -37.041002665499    -31.735002283675
C        2.919000210053    -38.523002772145    -31.597002273744
O        2.956000212716    -39.252002824604    -32.595002345561
C        3.882000279352    -36.215002606059    -31.748002284611
C        4.898000352464    -36.676002639233    -32.770002358154
C        4.848000348866    -36.223002606635    -34.081002452495
C        5.911000425360    -37.563002703062    -32.422002333112
C        5.774000415502    -36.642002636787    -35.017002519850
C        6.839000492139    -37.989002733718    -33.352002400036
C        6.767000486959    -37.524002700256    -34.647002493225
O        7.692000553522    -37.944002730480    -35.577002560148
H        2.001000143994    -35.929002585478    -29.923002153282
H        2.118000152413    -36.905002655712    -32.614002346929
H        3.644000262225    -35.268002537913    -31.950002299147
H        4.301000309503    -36.274002610305    -30.845002219630
H        4.127000296982    -35.581002560436    -34.355002472212
H        5.967000429390    -37.896002727026    -31.480002265325
H        5.725000411975    -36.305002612536    -35.961002587781
H        7.560000544023    -38.632002779988    -33.087002380966
H        8.323000598929    -38.598002777542    -35.129002527910
N        3.160000227396    -38.986002805462    -30.371002185520
C        3.594000258627    -40.356002904049    -30.132002168322
C        2.439000175512    -41.341002974930    -30.047002162205
O        2.622000188681    -42.457003055239    -29.545002126081
C        4.450000320226    -40.414002908222    -28.866002077220
C        5.774000415502    -39.714002857850    -29.049002090388
C        6.846000492643    -40.367002904841    -29.641002132989
C        5.945000427807    -38.391002762646    -28.661002062468
C        8.054000579572    -39.732002859145    -29.827002146374
C        7.153000514735    -37.746002716231    -28.843002075564
C        8.203000590294    -38.422002764877    -29.428002117662
O        9.410000677151    -37.788002719254    -29.613002130974
H        3.012000216746    -38.291002755450    -29.610002130758
H        4.191000301587    -40.638002924342    -30.904002223876
H        3.956000284677    -39.966002875984    -28.135002024616
H        4.625000332818    -41.364002976585    -28.651002061748
H        6.738000484871    -41.321002973491    -29.938002154362
H        5.181000372829    -37.900002727313    -28.245002032532
H        8.822000634838    -40.220002894262    -30.252002176957
H        7.266000522867    -36.795002647796    -28.552002054624
H        9.337000671898    -36.845002651395    -29.243002104349
H        1.510720713627    -41.039174597823    -30.425073644988
C       10.355344205179    -30.039809521688    -30.409765068310
C       11.149074972296    -29.523466454531    -29.333980510896
C       11.574941042942    -28.174631127468    -29.280005637011
C       12.313020706054    -27.684139672172    -28.231950321593
C       12.710207444636    -28.503163051109    -27.147382433547
C       12.351190908801    -29.873142959694    -27.232211259651
C       11.582813203508    -30.349347003962    -28.266779644099
C       10.433753850821    -31.444121972743    -30.691220818564
C       11.683751480772    -32.094266959528    -30.612923412929
C       11.843206412246    -33.393286693006    -31.016165711947
C       10.739310832809    -34.190404320368    -31.419841270996
C        9.466203301195    -33.564598645334    -31.392938459060
C        9.333862681672    -32.230149299306    -31.103363728222
C        9.560212267960    -29.213025982192    -31.276632460691
C        9.357428643368    -29.592242019480    -32.633649358343
C        8.595090698509    -28.843748635618    -33.496798990455
C        7.920620249974    -27.664749880776    -33.050295058324
C        8.163498637452    -27.247015060716    -31.712822272079
C        8.944316623640    -27.997056224689    -30.869766821412
C       13.814271974086    -28.853252386302    -24.995893068724
C       13.501949651611    -26.556155151001    -25.920459515256
C        9.874875230604    -36.226091396858    -32.451055905203
C       12.144526863929    -36.199326494931    -31.544536089969
C        6.608688615566    -25.662631336703    -33.503686290951
C        6.830739571546    -27.428441033772    -35.225309404840
N       13.363159701623    -27.987657674013    -26.070648876064
N       10.935768236946    -35.463872542007    -31.831462780617
N        7.097951630774    -26.967761580621    -33.869665107287
H        7.678809822573    -27.241053070287    -35.884908712306
H        6.603918585223    -28.496247560612    -35.244494546221
H        5.959658488862    -26.902463805922    -35.608091432385
H        5.756746224260    -25.731034951625    -32.817889691601
H        7.390310521812    -25.067199933855    -33.030780526920
H        6.279117811850    -25.138332958974    -34.396838105223
H       12.755482117895    -36.317448623431    -32.440216474423
H       12.717127645134    -35.719632830412    -30.758340903394
H       11.846512572484    -37.183673165766    -31.179127783674
H        9.341367822212    -36.847963981608    -31.727682473148
H        9.163139449386    -35.569369019599    -32.944640390721
H       10.304583761526    -36.871185293279    -33.215868300239
H       14.021326038985    -26.101814678307    -26.761829305802
H       12.517616800777    -26.083058546957    -25.815838637728
H       14.063495812020    -26.343997055734    -25.014026680028
H       13.000841285551    -29.446693019006    -24.576632008553
H       14.587113859700    -29.529820974989    -25.374483295967
H       14.254185545742    -28.251244812981    -24.207710912005
H        9.031047829881    -27.694060152886    -29.835669776998
H        7.657848261065    -26.384721468665    -31.311773383219
H        8.488790640860    -29.179923729810    -34.513528643620
H        9.840121248103    -30.485302343746    -32.994798674331
H        8.342881710360    -31.799650838327    -31.108707588606
H        8.566931456483    -34.134844806370    -31.564814841428
H       12.841878604111    -33.778482260725    -31.112961618913
H       12.559345053780    -31.506151137207    -30.382662446360
H       11.302502163337    -31.391747228974    -28.265383313998
H       12.662037631170    -30.566070309558    -26.469104984737
H       12.534105661964    -26.629911106309    -28.223252300967
H       11.294775302781    -27.507055629429    -30.079335394532
O       10.920000785811    -39.555002846408    -31.114002238987
H       10.374000746521    -38.916002800425    -30.572002199985
H       11.785000848058    -39.151002817336    -31.411002260360
