   48
Gau_xtb
C       42.886935736177     37.926037549187     10.136128799403
C       42.991615463709     38.326094477975     11.479636396083
C       43.822151593476     37.684724491822     12.380935960942
C       44.576982877794     36.582193672483     11.924593018103
C       45.538019766951     35.721185040524     12.535383252056
C       45.925205624813     34.839009127042     11.564199622169
N       45.278131388249     35.083145164610     10.385782087369
C       44.427998627073     36.172321042988     10.575166900997
C       43.606314637944     36.827975760170      9.655468624815
C       47.031856024448     33.836976764935     11.731610644216
N       47.377233799302     33.652126871633     13.151041506359
C       48.158385365514     32.548999752251     13.383879503114
O       48.550443923727     31.851584032064     12.471710467474
C       48.521452941641     32.218606268476     14.809548475707
N       48.169917936344     33.215697730227     15.792310656427
C       47.232369678878     34.167315208706     15.584509031473
O       46.862095142232     34.930582023631     16.469180435135
C       46.562393750665     34.237333203744     14.222892843490
C       46.146540190740     35.682781457760     13.897931260106
C       48.769604799498     33.087739171019     17.105850220950
C       48.248393161992     34.282515856996     10.910215005107
C       48.717353575738     33.456799707577      9.889211411635
C       49.808137064232     33.836100964871      9.092235884284
C       50.391925326241     35.038855121423      9.388488055603
O       51.476534794291     35.657707865956      8.790378022562
C       51.870626882650     36.666091308520      9.686871447075
O       50.683314347210     37.011059723344     10.457215022509
C       49.934334863313     35.870859771294     10.398597558291
C       48.850712445335     35.519143395985     11.178125564387
H       52.655842169155     36.317631533445     10.369407726190
H       52.190989795703     37.544210541710      9.125808286700
H       48.484581678987     32.132617862288     17.563838723907
H       49.861206758050     33.141617424896     17.040685716261
H       48.393379552425     33.895544169149     17.730713335916
H       48.061056618510     31.250970788844     15.043778282562
H       49.602950609466     32.055572926743     14.816836536231
H       47.015532703274     36.347949535626     13.981726246136
H       45.454541890944     36.008216151179     14.674663546000
H       45.390051206303     34.549870516235      9.523402245311
H       43.548482883782     36.498600926467      8.623513410555
H       42.245678520032     38.502484470668      9.474285811777
H       48.270441863578     32.479486877249      9.750223291633
H       50.177076100781     33.205694719507      8.291036176629
H       48.483184248887     36.171268932912     11.963933620934
H       42.403370051379     39.175009399064     11.815244960234
H       46.709035061218     32.866152605073     11.338646895938
H       45.634984093928     33.648886291400     14.317778240318
H       43.889308208308     38.020196935962     13.410911515059
