 xtb: 6.6.0 (2ccbbd7)
          12242323433D

 48 53  0     0  0            999 V2000
   42.8869   37.9260   10.1361 C   0  0  0  0  0  0  0  0  0  0  0  0
   42.9916   38.3261   11.4796 C   0  0  0  0  0  0  0  0  0  0  0  0
   43.8222   37.6847   12.3809 C   0  0  0  0  0  0  0  0  0  0  0  0
   44.5770   36.5822   11.9246 C   0  0  0  0  0  0  0  0  0  0  0  0
   45.5380   35.7212   12.5354 C   0  0  0  0  0  0  0  0  0  0  0  0
   45.9252   34.8390   11.5642 C   0  0  0  0  0  0  0  0  0  0  0  0
   45.2781   35.0831   10.3858 N   0  0  0  0  0  0  0  0  0  0  0  0
   44.4280   36.1723   10.5752 C   0  0  0  0  0  0  0  0  0  0  0  0
   43.6063   36.8280    9.6555 C   0  0  0  0  0  0  0  0  0  0  0  0
   47.0319   33.8370   11.7316 C   0  0  0  0  0  0  0  0  0  0  0  0
   47.3772   33.6521   13.1510 N   0  0  0  0  0  0  0  0  0  0  0  0
   48.1584   32.5490   13.3839 C   0  0  0  0  0  0  0  0  0  0  0  0
   48.5504   31.8516   12.4717 O   0  0  0  0  0  0  0  0  0  0  0  0
   48.5215   32.2186   14.8095 C   0  0  0  0  0  0  0  0  0  0  0  0
   48.1699   33.2157   15.7923 N   0  0  0  0  0  0  0  0  0  0  0  0
   47.2324   34.1673   15.5845 C   0  0  0  0  0  0  0  0  0  0  0  0
   46.8621   34.9306   16.4692 O   0  0  0  0  0  0  0  0  0  0  0  0
   46.5624   34.2373   14.2229 C   0  0  0  0  0  0  0  0  0  0  0  0
   46.1465   35.6828   13.8979 C   0  0  0  0  0  0  0  0  0  0  0  0
   48.7696   33.0877   17.1059 C   0  0  0  0  0  0  0  0  0  0  0  0
   48.2484   34.2825   10.9102 C   0  0  0  0  0  0  0  0  0  0  0  0
   48.7174   33.4568    9.8892 C   0  0  0  0  0  0  0  0  0  0  0  0
   49.8081   33.8361    9.0922 C   0  0  0  0  0  0  0  0  0  0  0  0
   50.3919   35.0389    9.3885 C   0  0  0  0  0  0  0  0  0  0  0  0
   51.4765   35.6577    8.7904 O   0  0  0  0  0  0  0  0  0  0  0  0
   51.8706   36.6661    9.6869 C   0  0  0  0  0  0  0  0  0  0  0  0
   50.6833   37.0111   10.4572 O   0  0  0  0  0  0  0  0  0  0  0  0
   49.9343   35.8709   10.3986 C   0  0  0  0  0  0  0  0  0  0  0  0
   48.8507   35.5191   11.1781 C   0  0  0  0  0  0  0  0  0  0  0  0
   52.6558   36.3176   10.3694 H   0  0  0  0  0  0  0  0  0  0  0  0
   52.1910   37.5442    9.1258 H   0  0  0  0  0  0  0  0  0  0  0  0
   48.4846   32.1326   17.5638 H   0  0  0  0  0  0  0  0  0  0  0  0
   49.8612   33.1416   17.0407 H   0  0  0  0  0  0  0  0  0  0  0  0
   48.3934   33.8955   17.7307 H   0  0  0  0  0  0  0  0  0  0  0  0
   48.0611   31.2510   15.0438 H   0  0  0  0  0  0  0  0  0  0  0  0
   49.6030   32.0556   14.8168 H   0  0  0  0  0  0  0  0  0  0  0  0
   47.0155   36.3479   13.9817 H   0  0  0  0  0  0  0  0  0  0  0  0
   45.4545   36.0082   14.6747 H   0  0  0  0  0  0  0  0  0  0  0  0
   45.3901   34.5499    9.5234 H   0  0  0  0  0  0  0  0  0  0  0  0
   43.5485   36.4986    8.6235 H   0  0  0  0  0  0  0  0  0  0  0  0
   42.2457   38.5025    9.4743 H   0  0  0  0  0  0  0  0  0  0  0  0
   48.2704   32.4795    9.7502 H   0  0  0  0  0  0  0  0  0  0  0  0
   50.1771   33.2057    8.2910 H   0  0  0  0  0  0  0  0  0  0  0  0
   48.4832   36.1713   11.9639 H   0  0  0  0  0  0  0  0  0  0  0  0
   42.4034   39.1750   11.8152 H   0  0  0  0  0  0  0  0  0  0  0  0
   46.7090   32.8662   11.3386 H   0  0  0  0  0  0  0  0  0  0  0  0
   45.6350   33.6489   14.3178 H   0  0  0  0  0  0  0  0  0  0  0  0
   43.8893   38.0202   13.4109 H   0  0  0  0  0  0  0  0  0  0  0  0
  1  2  4  0  0  0  0
  2  3  2  0  0  0  0
  3  4  4  0  0  0  0
  4  5  4  0  0  0  0
  5  6  2  0  0  0  0
  6  7  1  0  0  0  0
  4  8  4  0  0  0  0
  7  8  1  0  0  0  0
  1  9  4  0  0  0  0
  8  9  4  0  0  0  0
  6 10  1  0  0  0  0
 10 11  1  0  0  0  0
 11 12  4  0  0  0  0
 12 13  2  0  0  0  0
 12 14  1  0  0  0  0
 14 15  1  0  0  0  0
 15 16  4  0  0  0  0
 16 17  2  0  0  0  0
 11 18  1  0  0  0  0
 16 18  1  0  0  0  0
  5 19  1  0  0  0  0
 18 19  1  0  0  0  0
 15 20  1  0  0  0  0
 10 21  1  0  0  0  0
 21 22  4  0  0  0  0
 22 23  4  0  0  0  0
 23 24  4  0  0  0  0
 24 25  1  0  0  0  0
 25 26  1  0  0  0  0
 26 27  1  0  0  0  0
 24 28  4  0  0  0  0
 27 28  1  0  0  0  0
 21 29  4  0  0  0  0
 28 29  4  0  0  0  0
 26 30  1  0  0  0  0
 26 31  1  0  0  0  0
 20 32  1  0  0  0  0
 20 33  1  0  0  0  0
 20 34  1  0  0  0  0
 14 35  1  0  0  0  0
 14 36  1  0  0  0  0
 19 37  1  0  0  0  0
 19 38  1  0  0  0  0
  7 39  1  0  0  0  0
  9 40  1  0  0  0  0
  1 41  1  0  0  0  0
 22 42  1  0  0  0  0
 23 43  1  0  0  0  0
 29 44  1  0  0  0  0
  2 45  1  0  0  0  0
 10 46  1  0  0  0  0
 18 47  1  0  0  0  0
  3 48  1  0  0  0  0
M  END
