 xtb: 6.6.0 (2ccbbd7)
          12242305293D

320312  0     0  0            999 V2000
   47.0411   46.5291   14.1343 H   0  0  0  0  0  0  0  0  0  0  0  0
   46.9620   45.7960   14.6930 N   0  0  0  0  0  0  0  0  0  0  0  0
   45.7780   44.9310   14.7040 C   0  0  0  0  0  0  0  0  0  0  0  0
   44.9860   45.0230   15.9900 C   0  0  0  0  0  0  0  0  0  0  0  0
   43.7780   45.2400   15.9440 O   0  0  0  0  0  0  0  0  0  0  0  0
   46.1690   43.4970   14.4010 C   0  0  0  0  0  0  0  0  0  0  0  0
   45.0090   42.5000   14.5030 C   0  0  0  0  0  0  0  0  0  0  0  0
   44.9960   41.5260   15.4440 C   0  0  0  0  0  0  0  0  0  0  0  0
   43.9380   42.5700   13.6270 C   0  0  0  0  0  0  0  0  0  0  0  0
   43.9700   40.6210   15.5540 C   0  0  0  0  0  0  0  0  0  0  0  0
   42.8930   41.6700   13.7150 C   0  0  0  0  0  0  0  0  0  0  0  0
   42.9040   40.7040   14.6690 C   0  0  0  0  0  0  0  0  0  0  0  0
   41.8790   39.7720   14.7960 O   0  0  0  0  0  0  0  0  0  0  0  0
   47.7850   45.6320   15.3170 H   0  0  0  0  0  0  0  0  0  0  0  0
   45.1770   45.2180   13.9370 H   0  0  0  0  0  0  0  0  0  0  0  0
   46.5250   43.4480   13.4720 H   0  0  0  0  0  0  0  0  0  0  0  0
   46.8680   43.2080   15.0500 H   0  0  0  0  0  0  0  0  0  0  0  0
   45.7730   41.4530   16.1010 H   0  0  0  0  0  0  0  0  0  0  0  0
   43.9200   43.2790   12.9250 H   0  0  0  0  0  0  0  0  0  0  0  0
   43.9820   39.9120   16.2570 H   0  0  0  0  0  0  0  0  0  0  0  0
   42.1250   41.7380   13.0650 H   0  0  0  0  0  0  0  0  0  0  0  0
   41.2000   39.9690   14.0600 H   0  0  0  0  0  0  0  0  0  0  0  0
   45.5126   44.8996   16.8813 H   0  0  0  0  0  0  0  0  0  0  0  0
   36.7921   37.3414   11.8444 H   0  0  0  0  0  0  0  0  0  0  0  0
   37.5490   37.8840   11.9130 N   0  0  0  0  0  0  0  0  0  0  0  0
   38.0960   38.4770   10.6740 C   0  0  0  0  0  0  0  0  0  0  0  0
   38.4160   37.3730    9.6340 C   0  0  0  0  0  0  0  0  0  0  0  0
   38.3470   37.6450    8.4280 O   0  0  0  0  0  0  0  0  0  0  0  0
   39.3620   39.2830   10.9580 C   0  0  0  0  0  0  0  0  0  0  0  0
   37.9340   38.0210   12.8360 H   0  0  0  0  0  0  0  0  0  0  0  0
   37.4090   39.0900   10.2800 H   0  0  0  0  0  0  0  0  0  0  0  0
   39.6050   39.1890   11.9220 H   0  0  0  0  0  0  0  0  0  0  0  0
   40.1080   38.9390   10.3900 H   0  0  0  0  0  0  0  0  0  0  0  0
   39.1970   40.2450   10.7470 H   0  0  0  0  0  0  0  0  0  0  0  0
   38.7560   36.1850   10.0860 N   0  0  0  0  0  0  0  0  0  0  0  0
   39.1160   35.0710    9.1830 C   0  0  0  0  0  0  0  0  0  0  0  0
   37.8980   34.5380    8.3870 C   0  0  0  0  0  0  0  0  0  0  0  0
   38.0370   33.7290    7.4880 O   0  0  0  0  0  0  0  0  0  0  0  0
   39.7130   33.9140   10.0570 C   0  0  0  0  0  0  0  0  0  0  0  0
   40.6030   33.0400    9.1910 C   0  0  0  0  0  0  0  0  0  0  0  0
   38.7020   33.0900   10.7070 C   0  0  0  0  0  0  0  0  0  0  0  0
   41.8090   33.7260    8.8050 C   0  0  0  0  0  0  0  0  0  0  0  0
   38.7540   36.0840   11.1220 H   0  0  0  0  0  0  0  0  0  0  0  0
   39.7500   35.4550    8.5030 H   0  0  0  0  0  0  0  0  0  0  0  0
   40.2650   34.3350   10.7600 H   0  0  0  0  0  0  0  0  0  0  0  0
   40.8140   32.2140    9.7110 H   0  0  0  0  0  0  0  0  0  0  0  0
   40.0730   32.7800    8.3840 H   0  0  0  0  0  0  0  0  0  0  0  0
   39.1260   32.3850   11.2920 H   0  0  0  0  0  0  0  0  0  0  0  0
   38.0950   33.6480   11.2900 H   0  0  0  0  0  0  0  0  0  0  0  0
   38.1230   32.6170   10.0280 H   0  0  0  0  0  0  0  0  0  0  0  0
   42.3510   34.0010    9.6140 H   0  0  0  0  0  0  0  0  0  0  0  0
   42.3980   33.1390    8.2280 H   0  0  0  0  0  0  0  0  0  0  0  0
   41.6020   34.5640    8.2770 H   0  0  0  0  0  0  0  0  0  0  0  0
   36.9650   34.9066    8.6668 H   0  0  0  0  0  0  0  0  0  0  0  0
   39.1559   41.2881    4.8370 H   0  0  0  0  0  0  0  0  0  0  0  0
   39.1160   40.3540    4.7320 N   0  0  0  0  0  0  0  0  0  0  0  0
   40.0200   39.4800    5.4440 C   0  0  0  0  0  0  0  0  0  0  0  0
   41.4660   39.7600    5.0320 C   0  0  0  0  0  0  0  0  0  0  0  0
   42.3810   39.7450    5.8760 O   0  0  0  0  0  0  0  0  0  0  0  0
   39.5830   38.0160    5.1990 C   0  0  0  0  0  0  0  0  0  0  0  0
   40.6750   36.8890    5.0760 C   0  0  0  0  0  0  0  0  0  0  0  0
   41.4960   36.7370    6.1890 C   0  0  0  0  0  0  0  0  0  0  0  0
   42.5910   36.1970    6.0820 O   0  0  0  0  0  0  0  0  0  0  0  0
   41.0110   37.2060    7.3390 N   0  0  0  0  0  0  0  0  0  0  0  0
   38.3830   40.0290    4.0760 H   0  0  0  0  0  0  0  0  0  0  0  0
   39.9430   39.6750    6.4270 H   0  0  0  0  0  0  0  0  0  0  0  0
   38.9580   37.7320    5.9530 H   0  0  0  0  0  0  0  0  0  0  0  0
   39.0320   37.9800    4.3410 H   0  0  0  0  0  0  0  0  0  0  0  0
   40.1530   36.0390    4.8600 H   0  0  0  0  0  0  0  0  0  0  0  0
   41.2020   37.1230    4.2330 H   0  0  0  0  0  0  0  0  0  0  0  0
   41.5430   37.1290    8.2400 H   0  0  0  0  0  0  0  0  0  0  0  0
   40.0960   37.6540    7.3470 H   0  0  0  0  0  0  0  0  0  0  0  0
   41.6625   39.9699    4.0173 H   0  0  0  0  0  0  0  0  0  0  0  0
   43.3328   43.4543    6.2665 H   0  0  0  0  0  0  0  0  0  0  0  0
   42.7460   42.9390    6.7650 N   0  0  0  0  0  0  0  0  0  0  0  0
   42.9430   42.7060    8.1850 C   0  0  0  0  0  0  0  0  0  0  0  0
   44.1720   41.8170    8.3940 C   0  0  0  0  0  0  0  0  0  0  0  0
   44.9660   42.0570    9.3220 O   0  0  0  0  0  0  0  0  0  0  0  0
   41.6910   42.2280    8.8540 C   0  0  0  0  0  0  0  0  0  0  0  0
   40.5810   43.2910    8.7500 C   0  0  0  0  0  0  0  0  0  0  0  0
   41.9560   41.9030   10.2990 C   0  0  0  0  0  0  0  0  0  0  0  0
   39.2700   42.7740    9.2310 C   0  0  0  0  0  0  0  0  0  0  0  0
   41.9440   42.5470    6.2260 H   0  0  0  0  0  0  0  0  0  0  0  0
   43.1640   43.5920    8.5930 H   0  0  0  0  0  0  0  0  0  0  0  0
   41.3600   41.4110    8.3860 H   0  0  0  0  0  0  0  0  0  0  0  0
   40.8560   44.0740    9.2930 H   0  0  0  0  0  0  0  0  0  0  0  0
   40.5060   43.5560    7.7960 H   0  0  0  0  0  0  0  0  0  0  0  0
   41.1240   41.5480   10.7280 H   0  0  0  0  0  0  0  0  0  0  0  0
   42.6780   41.2120   10.3680 H   0  0  0  0  0  0  0  0  0  0  0  0
   42.2480   42.7270   10.7870 H   0  0  0  0  0  0  0  0  0  0  0  0
   39.3420   42.4960   10.1920 H   0  0  0  0  0  0  0  0  0  0  0  0
   38.5690   43.4870    9.1510 H   0  0  0  0  0  0  0  0  0  0  0  0
   38.9920   41.9820    8.6830 H   0  0  0  0  0  0  0  0  0  0  0  0
   44.3580   40.7950    7.5530 N   0  0  0  0  0  0  0  0  0  0  0  0
   45.5060   39.8960    7.6570 C   0  0  0  0  0  0  0  0  0  0  0  0
   46.8050   40.6850    7.4860 C   0  0  0  0  0  0  0  0  0  0  0  0
   47.8000   40.3480    8.0830 O   0  0  0  0  0  0  0  0  0  0  0  0
   45.3600   38.8130    6.6260 C   0  0  0  0  0  0  0  0  0  0  0  0
   43.6200   40.6970    6.8250 H   0  0  0  0  0  0  0  0  0  0  0  0
   45.5060   39.4740    8.5660 H   0  0  0  0  0  0  0  0  0  0  0  0
   46.2290   38.3250    6.5140 H   0  0  0  0  0  0  0  0  0  0  0  0
   44.6550   38.1590    6.9110 H   0  0  0  0  0  0  0  0  0  0  0  0
   45.0950   39.2110    5.7440 H   0  0  0  0  0  0  0  0  0  0  0  0
   46.8034   41.5158    6.8399 H   0  0  0  0  0  0  0  0  0  0  0  0
   47.9050   43.1008   10.8902 H   0  0  0  0  0  0  0  0  0  0  0  0
   47.5430   42.2340   10.9280 N   0  0  0  0  0  0  0  0  0  0  0  0
   48.0860   41.2690   11.8700 C   0  0  0  0  0  0  0  0  0  0  0  0
   49.5440   40.9650   11.5290 C   0  0  0  0  0  0  0  0  0  0  0  0
   50.4080   40.8600   12.4210 O   0  0  0  0  0  0  0  0  0  0  0  0
   47.2560   39.9970   11.9900 C   0  0  0  0  0  0  0  0  0  0  0  0
   47.6720   39.3540   13.4390 C   0  0  0  0  0  0  0  0  0  0  0  0
   45.8350   40.1810   11.9410 C   0  0  0  0  0  0  0  0  0  0  0  0
   46.7750   42.0500   10.2780 H   0  0  0  0  0  0  0  0  0  0  0  0
   48.0640   41.6750   12.7880 H   0  0  0  0  0  0  0  0  0  0  0  0
   47.5630   39.3400   11.3500 H   0  0  0  0  0  0  0  0  0  0  0  0
   46.8370   39.0460   13.8540 H   0  0  0  0  0  0  0  0  0  0  0  0
   48.2900   38.6160   13.2460 H   0  0  0  0  0  0  0  0  0  0  0  0
   48.0990   40.0760   13.9490 H   0  0  0  0  0  0  0  0  0  0  0  0
   45.3800   39.8030   12.7660 H   0  0  0  0  0  0  0  0  0  0  0  0
   45.5870   41.1640   11.8840 H   0  0  0  0  0  0  0  0  0  0  0  0
   45.4260   39.7200   11.1340 H   0  0  0  0  0  0  0  0  0  0  0  0
   49.8550   40.8180   10.2510 N   0  0  0  0  0  0  0  0  0  0  0  0
   51.2230   40.6040    9.8300 C   0  0  0  0  0  0  0  0  0  0  0  0
   52.1330   41.7520   10.2550 C   0  0  0  0  0  0  0  0  0  0  0  0
   53.2570   41.5640   10.7190 O   0  0  0  0  0  0  0  0  0  0  0  0
   51.2820   40.4670    8.3700 C   0  0  0  0  0  0  0  0  0  0  0  0
   49.0500   40.8690    9.5960 H   0  0  0  0  0  0  0  0  0  0  0  0
   51.5690   39.7520   10.2520 H   0  0  0  0  0  0  0  0  0  0  0  0
   52.1050   40.9160    7.9980 H   0  0  0  0  0  0  0  0  0  0  0  0
   51.3090   39.4950    8.0990 H   0  0  0  0  0  0  0  0  0  0  0  0
   50.4750   40.8880    7.9350 H   0  0  0  0  0  0  0  0  0  0  0  0
   51.7565   42.7046   10.1332 H   0  0  0  0  0  0  0  0  0  0  0  0
   52.8281   42.1666   14.4274 H   0  0  0  0  0  0  0  0  0  0  0  0
   52.6650   41.3460   14.0360 N   0  0  0  0  0  0  0  0  0  0  0  0
   53.5300   40.2200   14.3350 C   0  0  0  0  0  0  0  0  0  0  0  0
   54.9700   40.4490   13.8690 C   0  0  0  0  0  0  0  0  0  0  0  0
   55.8950   40.0870   14.5850 O   0  0  0  0  0  0  0  0  0  0  0  0
   52.9620   38.9380   13.6770 C   0  0  0  0  0  0  0  0  0  0  0  0
   51.7800   38.3280   14.3850 C   0  0  0  0  0  0  0  0  0  0  0  0
   51.2490   38.8840   15.4840 C   0  0  0  0  0  0  0  0  0  0  0  0
   51.2240   37.1780   13.9040 C   0  0  0  0  0  0  0  0  0  0  0  0
   50.1660   38.3010   16.1100 C   0  0  0  0  0  0  0  0  0  0  0  0
   50.1460   36.5690   14.4990 C   0  0  0  0  0  0  0  0  0  0  0  0
   49.6040   37.1080   15.5980 C   0  0  0  0  0  0  0  0  0  0  0  0
   51.8570   41.3030   13.4020 H   0  0  0  0  0  0  0  0  0  0  0  0
   53.5660   40.1300   15.3420 H   0  0  0  0  0  0  0  0  0  0  0  0
   52.6810   39.1780   12.7570 H   0  0  0  0  0  0  0  0  0  0  0  0
   53.6920   38.2670   13.6600 H   0  0  0  0  0  0  0  0  0  0  0  0
   51.6250   39.7300   15.8700 H   0  0  0  0  0  0  0  0  0  0  0  0
   51.6220   36.7500   13.0680 H   0  0  0  0  0  0  0  0  0  0  0  0
   49.7690   38.7190   16.9350 H   0  0  0  0  0  0  0  0  0  0  0  0
   49.7760   35.7090   14.0890 H   0  0  0  0  0  0  0  0  0  0  0  0
   48.8260   36.7100   16.0710 H   0  0  0  0  0  0  0  0  0  0  0  0
   55.1296   40.9080   12.9509 H   0  0  0  0  0  0  0  0  0  0  0  0
   56.6918   33.0757   11.2082 H   0  0  0  0  0  0  0  0  0  0  0  0
   56.0350   32.8740   11.8510 N   0  0  0  0  0  0  0  0  0  0  0  0
   54.8750   33.7240   12.0030 C   0  0  0  0  0  0  0  0  0  0  0  0
   55.2090   35.1950   12.2780 C   0  0  0  0  0  0  0  0  0  0  0  0
   54.4530   36.0970   11.9260 O   0  0  0  0  0  0  0  0  0  0  0  0
   54.0830   33.2150   13.2240 C   0  0  0  0  0  0  0  0  0  0  0  0
   52.7530   33.8250   13.5210 C   0  0  0  0  0  0  0  0  0  0  0  0
   51.8200   33.4890   12.3440 C   0  0  0  0  0  0  0  0  0  0  0  0
   52.1920   33.3880   14.8630 C   0  0  0  0  0  0  0  0  0  0  0  0
   56.2200   32.0270   12.4070 H   0  0  0  0  0  0  0  0  0  0  0  0
   54.3260   33.6860   11.1450 H   0  0  0  0  0  0  0  0  0  0  0  0
   53.9520   32.2220   13.0910 H   0  0  0  0  0  0  0  0  0  0  0  0
   54.6770   33.3450   14.0290 H   0  0  0  0  0  0  0  0  0  0  0  0
   52.8320   34.8080   13.5900 H   0  0  0  0  0  0  0  0  0  0  0  0
   51.7430   32.4980   12.2620 H   0  0  0  0  0  0  0  0  0  0  0  0
   50.9210   33.8860   12.5170 H   0  0  0  0  0  0  0  0  0  0  0  0
   52.2030   33.8700   11.5060 H   0  0  0  0  0  0  0  0  0  0  0  0
   52.8210   33.6580   15.5940 H   0  0  0  0  0  0  0  0  0  0  0  0
   51.3030   33.8230   15.0130 H   0  0  0  0  0  0  0  0  0  0  0  0
   52.0800   32.3930   14.8730 H   0  0  0  0  0  0  0  0  0  0  0  0
   56.1051   35.3836   12.7771 H   0  0  0  0  0  0  0  0  0  0  0  0
   53.8305   32.5229    4.7062 H   0  0  0  0  0  0  0  0  0  0  0  0
   53.5350   33.3890    4.5550 N   0  0  0  0  0  0  0  0  0  0  0  0
   52.2310   33.8320    4.9780 C   0  0  0  0  0  0  0  0  0  0  0  0
   51.0840   32.9710    4.4780 C   0  0  0  0  0  0  0  0  0  0  0  0
   50.3020   32.4740    5.2770 O   0  0  0  0  0  0  0  0  0  0  0  0
   51.9930   35.3290    4.7030 C   0  0  0  0  0  0  0  0  0  0  0  0
   52.7770   36.2230    5.6850 C   0  0  0  0  0  0  0  0  0  0  0  0
   50.5230   35.6610    4.8610 C   0  0  0  0  0  0  0  0  0  0  0  0
   52.7180   37.7100    5.3870 C   0  0  0  0  0  0  0  0  0  0  0  0
   54.2220   33.9990    4.0600 H   0  0  0  0  0  0  0  0  0  0  0  0
   52.2180   33.7640    5.9950 H   0  0  0  0  0  0  0  0  0  0  0  0
   52.3200   35.5310    3.7820 H   0  0  0  0  0  0  0  0  0  0  0  0
   52.4190   36.0610    6.6070 H   0  0  0  0  0  0  0  0  0  0  0  0
   53.7360   35.9300    5.6690 H   0  0  0  0  0  0  0  0  0  0  0  0
   50.3710   36.6260    4.6500 H   0  0  0  0  0  0  0  0  0  0  0  0
   49.9820   35.0980    4.2370 H   0  0  0  0  0  0  0  0  0  0  0  0
   50.2360   35.4800    5.8010 H   0  0  0  0  0  0  0  0  0  0  0  0
   51.7680   38.0140    5.4170 H   0  0  0  0  0  0  0  0  0  0  0  0
   53.2510   38.2040    6.0710 H   0  0  0  0  0  0  0  0  0  0  0  0
   53.0970   37.8790    4.4790 H   0  0  0  0  0  0  0  0  0  0  0  0
   50.9543   32.8122    3.4507 H   0  0  0  0  0  0  0  0  0  0  0  0
   50.6424   28.8588    5.6899 H   0  0  0  0  0  0  0  0  0  0  0  0
   50.9680   29.5800    6.1800 N   0  0  0  0  0  0  0  0  0  0  0  0
   50.6890   29.7560    7.6070 C   0  0  0  0  0  0  0  0  0  0  0  0
   49.2010   30.0800    7.8150 C   0  0  0  0  0  0  0  0  0  0  0  0
   48.5840   29.6230    8.7810 O   0  0  0  0  0  0  0  0  0  0  0  0
   51.5840   30.7640    8.2900 C   0  0  0  0  0  0  0  0  0  0  0  0
   53.0030   30.3010    8.3790 C   0  0  0  0  0  0  0  0  0  0  0  0
   54.0700   31.3350    9.3420 S   0  0  0  0  0  0  0  0  0  0  0  0
   53.9120   32.9440    8.4790 C   0  0  0  0  0  0  0  0  0  0  0  0
   51.5470   30.2520    5.6290 H   0  0  0  0  0  0  0  0  0  0  0  0
   50.8820   28.8920    8.0740 H   0  0  0  0  0  0  0  0  0  0  0  0
   51.5550   31.6300    7.7770 H   0  0  0  0  0  0  0  0  0  0  0  0
   51.2380   30.9340    9.2200 H   0  0  0  0  0  0  0  0  0  0  0  0
   53.0040   29.3230    8.7440 H   0  0  0  0  0  0  0  0  0  0  0  0
   53.3710   30.1880    7.4090 H   0  0  0  0  0  0  0  0  0  0  0  0
   54.4300   33.6250    8.9850 H   0  0  0  0  0  0  0  0  0  0  0  0
   54.2750   32.8450    7.5590 H   0  0  0  0  0  0  0  0  0  0  0  0
   52.9500   33.1920    8.4480 H   0  0  0  0  0  0  0  0  0  0  0  0
   48.5980   30.8730    6.9220 N   0  0  0  0  0  0  0  0  0  0  0  0
   47.1660   31.1790    7.0020 C   0  0  0  0  0  0  0  0  0  0  0  0
   46.3390   29.9170    6.8130 C   0  0  0  0  0  0  0  0  0  0  0  0
   45.4030   29.6460    7.5900 O   0  0  0  0  0  0  0  0  0  0  0  0
   46.7890   32.2200    5.9690 C   0  0  0  0  0  0  0  0  0  0  0  0
   47.3530   33.6190    6.2180 C   0  0  0  0  0  0  0  0  0  0  0  0
   46.6660   34.3470    7.3530 C   0  0  0  0  0  0  0  0  0  0  0  0
   45.7690   33.7990    8.0180 O   0  0  0  0  0  0  0  0  0  0  0  0
   47.0690   35.5760    7.5930 N   0  0  0  0  0  0  0  0  0  0  0  0
   49.2210   31.2450    6.1820 H   0  0  0  0  0  0  0  0  0  0  0  0
   46.9800   31.5370    7.9220 H   0  0  0  0  0  0  0  0  0  0  0  0
   47.1130   31.9190    5.0630 H   0  0  0  0  0  0  0  0  0  0  0  0
   45.7840   32.3000    5.9330 H   0  0  0  0  0  0  0  0  0  0  0  0
   48.3270   33.5330    6.4340 H   0  0  0  0  0  0  0  0  0  0  0  0
   47.2470   34.1560    5.3790 H   0  0  0  0  0  0  0  0  0  0  0  0
   46.6440   36.1380    8.3340 H   0  0  0  0  0  0  0  0  0  0  0  0
   47.8210   35.9740    7.0270 H   0  0  0  0  0  0  0  0  0  0  0  0
   46.5945   29.2953    6.0128 H   0  0  0  0  0  0  0  0  0  0  0  0
   46.7171   26.8913    9.7994 H   0  0  0  0  0  0  0  0  0  0  0  0
   46.6380   27.8050    9.9380 N   0  0  0  0  0  0  0  0  0  0  0  0
   45.8510   28.3780   11.0350 C   0  0  0  0  0  0  0  0  0  0  0  0
   44.3630   28.0750   10.8480 C   0  0  0  0  0  0  0  0  0  0  0  0
   43.6370   27.6720   11.7760 O   0  0  0  0  0  0  0  0  0  0  0  0
   46.0790   29.8820   11.0950 C   0  0  0  0  0  0  0  0  0  0  0  0
   45.3060   30.5810   12.1500 C   0  0  0  0  0  0  0  0  0  0  0  0
   45.6320   30.3300   13.4950 C   0  0  0  0  0  0  0  0  0  0  0  0
   44.2950   31.4520   11.8350 C   0  0  0  0  0  0  0  0  0  0  0  0
   44.9420   30.9550   14.5270 C   0  0  0  0  0  0  0  0  0  0  0  0
   43.5590   32.1200   12.9110 C   0  0  0  0  0  0  0  0  0  0  0  0
   43.9110   31.8440   14.2180 C   0  0  0  0  0  0  0  0  0  0  0  0
   47.1560   28.3960    9.2480 H   0  0  0  0  0  0  0  0  0  0  0  0
   46.1380   27.9100   11.8750 H   0  0  0  0  0  0  0  0  0  0  0  0
   47.0470   30.0330   11.2640 H   0  0  0  0  0  0  0  0  0  0  0  0
   45.8190   30.2610   10.2130 H   0  0  0  0  0  0  0  0  0  0  0  0
   46.3680   29.6970   13.7080 H   0  0  0  0  0  0  0  0  0  0  0  0
   44.0350   31.6550   10.9100 H   0  0  0  0  0  0  0  0  0  0  0  0
   45.1840   30.7660   15.4790 H   0  0  0  0  0  0  0  0  0  0  0  0
   42.8320   32.7460   12.6620 H   0  0  0  0  0  0  0  0  0  0  0  0
   43.4150   32.2930   14.9770 H   0  0  0  0  0  0  0  0  0  0  0  0
   43.9700   28.2188    9.9009 H   0  0  0  0  0  0  0  0  0  0  0  0
   42.8802   37.9211   10.1408 C   0  0  0  0  0  0  0  0  0  0  0  0
   42.9871   38.3182   11.4788 C   0  0  0  0  0  0  0  0  0  0  0  0
   43.8153   37.6852   12.3804 C   0  0  0  0  0  0  0  0  0  0  0  0
   44.5716   36.5863   11.9246 C   0  0  0  0  0  0  0  0  0  0  0  0
   45.5278   35.7298   12.5337 C   0  0  0  0  0  0  0  0  0  0  0  0
   45.9255   34.8503   11.5564 C   0  0  0  0  0  0  0  0  0  0  0  0
   45.2782   35.0944   10.3832 N   0  0  0  0  0  0  0  0  0  0  0  0
   44.4268   36.1752   10.5721 C   0  0  0  0  0  0  0  0  0  0  0  0
   43.6035   36.8303    9.6594 C   0  0  0  0  0  0  0  0  0  0  0  0
   47.0271   33.8452   11.7424 C   0  0  0  0  0  0  0  0  0  0  0  0
   47.3765   33.6469   13.1561 N   0  0  0  0  0  0  0  0  0  0  0  0
   48.1609   32.5564   13.3863 C   0  0  0  0  0  0  0  0  0  0  0  0
   48.5551   31.8741   12.4685 O   0  0  0  0  0  0  0  0  0  0  0  0
   48.5221   32.2258   14.8157 C   0  0  0  0  0  0  0  0  0  0  0  0
   48.1592   33.2168   15.7946 N   0  0  0  0  0  0  0  0  0  0  0  0
   47.2342   34.1685   15.5846 C   0  0  0  0  0  0  0  0  0  0  0  0
   46.8727   34.9265   16.4696 O   0  0  0  0  0  0  0  0  0  0  0  0
   46.5684   34.2333   14.2175 C   0  0  0  0  0  0  0  0  0  0  0  0
   46.1302   35.6797   13.8973 C   0  0  0  0  0  0  0  0  0  0  0  0
   48.7598   33.0841   17.1070 C   0  0  0  0  0  0  0  0  0  0  0  0
   48.2475   34.2808   10.9179 C   0  0  0  0  0  0  0  0  0  0  0  0
   48.7172   33.4576    9.8965 C   0  0  0  0  0  0  0  0  0  0  0  0
   49.8009   33.8339    9.1004 C   0  0  0  0  0  0  0  0  0  0  0  0
   50.3858   35.0339    9.3900 C   0  0  0  0  0  0  0  0  0  0  0  0
   51.4813   35.6550    8.7989 O   0  0  0  0  0  0  0  0  0  0  0  0
   51.8560   36.6714    9.6792 C   0  0  0  0  0  0  0  0  0  0  0  0
   50.6843   37.0083   10.4620 O   0  0  0  0  0  0  0  0  0  0  0  0
   49.9263   35.8709   10.4031 C   0  0  0  0  0  0  0  0  0  0  0  0
   48.8440   35.5128   11.1810 C   0  0  0  0  0  0  0  0  0  0  0  0
   52.6567   36.3406   10.3597 H   0  0  0  0  0  0  0  0  0  0  0  0
   52.1698   37.5528    9.1138 H   0  0  0  0  0  0  0  0  0  0  0  0
   48.4723   32.1322   17.5633 H   0  0  0  0  0  0  0  0  0  0  0  0
   49.8481   33.1381   17.0536 H   0  0  0  0  0  0  0  0  0  0  0  0
   48.3816   33.8927   17.7304 H   0  0  0  0  0  0  0  0  0  0  0  0
   48.0616   31.2531   15.0412 H   0  0  0  0  0  0  0  0  0  0  0  0
   49.6055   32.0596   14.8326 H   0  0  0  0  0  0  0  0  0  0  0  0
   46.9946   36.3426   13.9703 H   0  0  0  0  0  0  0  0  0  0  0  0
   45.4281   36.0022   14.6663 H   0  0  0  0  0  0  0  0  0  0  0  0
   45.3914   34.5524    9.5262 H   0  0  0  0  0  0  0  0  0  0  0  0
   43.5400   36.4966    8.6336 H   0  0  0  0  0  0  0  0  0  0  0  0
   42.2294   38.4804    9.4790 H   0  0  0  0  0  0  0  0  0  0  0  0
   48.2623   32.4934    9.7445 H   0  0  0  0  0  0  0  0  0  0  0  0
   50.1624   33.2179    8.2923 H   0  0  0  0  0  0  0  0  0  0  0  0
   48.4648   36.1513   11.9625 H   0  0  0  0  0  0  0  0  0  0  0  0
   42.3933   39.1587   11.8194 H   0  0  0  0  0  0  0  0  0  0  0  0
   46.6994   32.8748   11.3457 H   0  0  0  0  0  0  0  0  0  0  0  0
   45.6408   33.6407   14.3195 H   0  0  0  0  0  0  0  0  0  0  0  0
   43.8868   38.0141   13.4065 H   0  0  0  0  0  0  0  0  0  0  0  0
   39.4260   38.5820   14.0290 O   0  0  0  0  0  0  0  0  0  0  0  0
   39.3350   38.2320   14.9610 H   0  0  0  0  0  0  0  0  0  0  0  0
   40.2830   38.2930   13.6020 H   0  0  0  0  0  0  0  0  0  0  0  0
   48.8570   37.8620    7.1200 O   0  0  0  0  0  0  0  0  0  0  0  0
   48.4880   38.7290    7.4560 H   0  0  0  0  0  0  0  0  0  0  0  0
   49.7080   37.6120    7.5820 H   0  0  0  0  0  0  0  0  0  0  0  0
   46.9030   37.1230   18.1940 O   0  0  0  0  0  0  0  0  0  0  0  0
   46.8040   36.1320   18.1070 H   0  0  0  0  0  0  0  0  0  0  0  0
   47.3970   37.3790   19.0250 H   0  0  0  0  0  0  0  0  0  0  0  0
   49.9930   29.5880   13.1150 O   0  0  0  0  0  0  0  0  0  0  0  0
   49.4930   28.7570   13.3590 H   0  0  0  0  0  0  0  0  0  0  0  0
   50.8760   29.3840   12.6920 H   0  0  0  0  0  0  0  0  0  0  0  0
   42.9320   36.0330   15.4640 O   0  0  0  0  0  0  0  0  0  0  0  0
   42.6650   36.9820   15.2950 H   0  0  0  0  0  0  0  0  0  0  0  0
   43.9220   35.9050   15.3990 H   0  0  0  0  0  0  0  0  0  0  0  0
   47.8220   33.4840   20.5870 O   0  0  0  0  0  0  0  0  0  0  0  0
   48.4190   32.8910   21.1270 H   0  0  0  0  0  0  0  0  0  0  0  0
   48.3840   34.2470   20.2680 H   0  0  0  0  0  0  0  0  0  0  0  0
  1  2  1  0  0  0  0
  2  3  1  0  0  0  0
  3  4  1  0  0  0  0
  4  5  2  0  0  0  0
  3  6  1  0  0  0  0
  6  7  1  0  0  0  0
  7  8  4  0  0  0  0
  7  9  4  0  0  0  0
  8 10  4  0  0  0  0
  9 11  4  0  0  0  0
 10 12  4  0  0  0  0
 11 12  4  0  0  0  0
 12 13  1  0  0  0  0
  2 14  1  0  0  0  0
  3 15  1  0  0  0  0
  6 16  1  0  0  0  0
  6 17  1  0  0  0  0
  8 18  1  0  0  0  0
  9 19  1  0  0  0  0
 10 20  1  0  0  0  0
 11 21  1  0  0  0  0
 13 22  1  0  0  0  0
  4 23  1  0  0  0  0
 24 25  1  0  0  0  0
 25 26  1  0  0  0  0
 26 27  1  0  0  0  0
 27 28  2  0  0  0  0
 26 29  1  0  0  0  0
 25 30  1  0  0  0  0
 26 31  1  0  0  0  0
 29 32  1  0  0  0  0
 29 33  1  0  0  0  0
 29 34  1  0  0  0  0
 27 35  4  0  0  0  0
 35 36  1  0  0  0  0
 36 37  1  0  0  0  0
 37 38  2  0  0  0  0
 36 39  1  0  0  0  0
 39 40  1  0  0  0  0
 39 41  1  0  0  0  0
 40 42  1  0  0  0  0
 35 43  1  0  0  0  0
 36 44  1  0  0  0  0
 39 45  1  0  0  0  0
 40 46  1  0  0  0  0
 40 47  1  0  0  0  0
 41 48  1  0  0  0  0
 41 49  1  0  0  0  0
 41 50  1  0  0  0  0
 42 51  1  0  0  0  0
 42 52  1  0  0  0  0
 42 53  1  0  0  0  0
 37 54  1  0  0  0  0
 55 56  1  0  0  0  0
 56 57  1  0  0  0  0
 57 58  1  0  0  0  0
 58 59  2  0  0  0  0
 57 60  1  0  0  0  0
 60 61  1  0  0  0  0
 61 62  1  0  0  0  0
 62 63  2  0  0  0  0
 62 64  4  0  0  0  0
 56 65  1  0  0  0  0
 57 66  1  0  0  0  0
 60 67  1  0  0  0  0
 60 68  1  0  0  0  0
 61 69  1  0  0  0  0
 61 70  1  0  0  0  0
 64 71  1  0  0  0  0
 64 72  1  0  0  0  0
 58 73  1  0  0  0  0
 74 75  1  0  0  0  0
 75 76  1  0  0  0  0
 76 77  1  0  0  0  0
 77 78  2  0  0  0  0
 76 79  1  0  0  0  0
 79 80  1  0  0  0  0
 79 81  1  0  0  0  0
 80 82  1  0  0  0  0
 75 83  1  0  0  0  0
 76 84  1  0  0  0  0
 79 85  1  0  0  0  0
 80 86  1  0  0  0  0
 80 87  1  0  0  0  0
 81 88  1  0  0  0  0
 81 89  1  0  0  0  0
 81 90  1  0  0  0  0
 82 91  1  0  0  0  0
 82 92  1  0  0  0  0
 82 93  1  0  0  0  0
 77 94  4  0  0  0  0
 94 95  1  0  0  0  0
 95 96  1  0  0  0  0
 96 97  2  0  0  0  0
 95 98  1  0  0  0  0
 94 99  1  0  0  0  0
 95100  1  0  0  0  0
 98101  1  0  0  0  0
 98102  1  0  0  0  0
 98103  1  0  0  0  0
 96104  1  0  0  0  0
105106  1  0  0  0  0
106107  1  0  0  0  0
107108  1  0  0  0  0
108109  2  0  0  0  0
107110  1  0  0  0  0
110111  1  0  0  0  0
110112  1  0  0  0  0
106113  1  0  0  0  0
107114  1  0  0  0  0
110115  1  0  0  0  0
111116  1  0  0  0  0
111117  1  0  0  0  0
111118  1  0  0  0  0
112119  1  0  0  0  0
112120  1  0  0  0  0
112121  1  0  0  0  0
108122  4  0  0  0  0
122123  1  0  0  0  0
123124  1  0  0  0  0
124125  2  0  0  0  0
123126  1  0  0  0  0
122127  1  0  0  0  0
123128  1  0  0  0  0
126129  1  0  0  0  0
126130  1  0  0  0  0
126131  1  0  0  0  0
124132  1  0  0  0  0
133134  1  0  0  0  0
134135  1  0  0  0  0
135136  1  0  0  0  0
136137  2  0  0  0  0
135138  1  0  0  0  0
138139  1  0  0  0  0
139140  4  0  0  0  0
139141  4  0  0  0  0
140142  4  0  0  0  0
141143  4  0  0  0  0
142144  4  0  0  0  0
143144  4  0  0  0  0
134145  1  0  0  0  0
135146  1  0  0  0  0
138147  1  0  0  0  0
138148  1  0  0  0  0
140149  1  0  0  0  0
141150  1  0  0  0  0
142151  1  0  0  0  0
143152  1  0  0  0  0
144153  1  0  0  0  0
136154  1  0  0  0  0
155156  1  0  0  0  0
156157  1  0  0  0  0
157158  1  0  0  0  0
158159  2  0  0  0  0
157160  1  0  0  0  0
160161  1  0  0  0  0
161162  1  0  0  0  0
161163  1  0  0  0  0
156164  1  0  0  0  0
157165  1  0  0  0  0
160166  1  0  0  0  0
160167  1  0  0  0  0
161168  1  0  0  0  0
162169  1  0  0  0  0
162170  1  0  0  0  0
162171  1  0  0  0  0
163172  1  0  0  0  0
163173  1  0  0  0  0
163174  1  0  0  0  0
158175  1  0  0  0  0
176177  1  0  0  0  0
177178  1  0  0  0  0
178179  1  0  0  0  0
179180  2  0  0  0  0
178181  1  0  0  0  0
181182  1  0  0  0  0
181183  1  0  0  0  0
182184  1  0  0  0  0
177185  1  0  0  0  0
178186  1  0  0  0  0
181187  1  0  0  0  0
182188  1  0  0  0  0
182189  1  0  0  0  0
183190  1  0  0  0  0
183191  1  0  0  0  0
183192  1  0  0  0  0
184193  1  0  0  0  0
184194  1  0  0  0  0
184195  1  0  0  0  0
179196  1  0  0  0  0
197198  1  0  0  0  0
198199  1  0  0  0  0
199200  1  0  0  0  0
200201  2  0  0  0  0
199202  1  0  0  0  0
202203  1  0  0  0  0
203204  1  0  0  0  0
204205  1  0  0  0  0
198206  1  0  0  0  0
199207  1  0  0  0  0
202208  1  0  0  0  0
202209  1  0  0  0  0
203210  1  0  0  0  0
203211  1  0  0  0  0
205212  1  0  0  0  0
205213  1  0  0  0  0
205214  1  0  0  0  0
200215  4  0  0  0  0
215216  1  0  0  0  0
216217  1  0  0  0  0
217218  2  0  0  0  0
216219  1  0  0  0  0
219220  1  0  0  0  0
220221  1  0  0  0  0
221222  2  0  0  0  0
221223  4  0  0  0  0
215224  1  0  0  0  0
216225  1  0  0  0  0
219226  1  0  0  0  0
219227  1  0  0  0  0
220228  1  0  0  0  0
220229  1  0  0  0  0
223230  1  0  0  0  0
223231  1  0  0  0  0
217232  1  0  0  0  0
233234  1  0  0  0  0
234235  1  0  0  0  0
235236  1  0  0  0  0
236237  2  0  0  0  0
235238  1  0  0  0  0
238239  1  0  0  0  0
239240  4  0  0  0  0
239241  4  0  0  0  0
240242  4  0  0  0  0
241243  4  0  0  0  0
242244  4  0  0  0  0
243244  2  0  0  0  0
234245  1  0  0  0  0
235246  1  0  0  0  0
238247  1  0  0  0  0
238248  1  0  0  0  0
240249  1  0  0  0  0
241250  1  0  0  0  0
242251  1  0  0  0  0
243252  1  0  0  0  0
244253  1  0  0  0  0
236254  1  0  0  0  0
255256  4  0  0  0  0
256257  2  0  0  0  0
257258  4  0  0  0  0
258259  4  0  0  0  0
259260  2  0  0  0  0
260261  4  0  0  0  0
258262  4  0  0  0  0
261262  1  0  0  0  0
255263  4  0  0  0  0
262263  4  0  0  0  0
260264  1  0  0  0  0
264265  1  0  0  0  0
265266  4  0  0  0  0
266267  2  0  0  0  0
266268  1  0  0  0  0
268269  1  0  0  0  0
269270  4  0  0  0  0
270271  2  0  0  0  0
265272  1  0  0  0  0
270272  1  0  0  0  0
259273  1  0  0  0  0
272273  1  0  0  0  0
269274  1  0  0  0  0
264275  1  0  0  0  0
275276  4  0  0  0  0
276277  4  0  0  0  0
277278  4  0  0  0  0
278279  1  0  0  0  0
279280  1  0  0  0  0
280281  1  0  0  0  0
278282  4  0  0  0  0
281282  1  0  0  0  0
275283  4  0  0  0  0
282283  4  0  0  0  0
280284  1  0  0  0  0
280285  1  0  0  0  0
274286  1  0  0  0  0
274287  1  0  0  0  0
274288  1  0  0  0  0
268289  1  0  0  0  0
268290  1  0  0  0  0
273291  1  0  0  0  0
273292  1  0  0  0  0
261293  1  0  0  0  0
263294  1  0  0  0  0
255295  1  0  0  0  0
276296  1  0  0  0  0
277297  1  0  0  0  0
283298  1  0  0  0  0
256299  1  0  0  0  0
264300  1  0  0  0  0
272301  1  0  0  0  0
257302  1  0  0  0  0
303304  1  0  0  0  0
303305  1  0  0  0  0
306307  1  0  0  0  0
306308  1  0  0  0  0
309310  1  0  0  0  0
309311  1  0  0  0  0
312313  1  0  0  0  0
312314  1  0  0  0  0
315316  1  0  0  0  0
315317  1  0  0  0  0
318319  1  0  0  0  0
318320  1  0  0  0  0
M  END
