   59
Gau_xtb
C       48.238399501272    -28.010485935656    -96.080016433992
C       48.950224482495    -27.186492486361    -95.210627921430
C       48.553416203941    -25.878389412229    -94.970255074132
C       47.452309094704    -25.363505615177    -95.655137343417
O       47.081717218036    -24.052148750811    -95.510390313001
C       46.753397794410    -26.171655533333    -96.552187467969
C       47.139467542192    -27.482700507676    -96.744166471784
C       48.618180868602    -29.417700486920    -96.316442021005
C       49.012202926956    -29.812794775352    -97.531280748426
C       49.251551844179    -28.931119201906    -98.743321225645
C       48.264985433185    -29.271223426380    -99.882895777650
C       49.295381657334    -31.239923378049    -97.770710835655
C       50.573907829337    -31.658047408137    -98.154143583248
C       50.821483887153    -32.982984793481    -98.454557044865
C       49.770083181493    -33.888702108657    -98.499215978079
C       48.494988959736    -33.477680999079    -98.157029063455
C       48.265078753192    -32.184241406003    -97.718584581904
C       48.664367871925    -30.268435718140    -95.092262492912
C       49.831412155906    -30.955555807586    -94.711659075524
C       49.923215102513    -31.628618086020    -93.505699008742
C       48.840164524576    -31.637850316684    -92.627929035576
O       48.938601741659    -32.430645513734    -91.476323182706
C       47.699195492470    -30.938314666345    -92.976439840656
C       47.597837325177    -30.288997649620    -94.198052128564
C       48.460512527255    -31.977113261098    -90.223944282584
C       48.587373116385    -33.126351993798    -89.231574891172
N       49.955962584869    -33.266241003864    -88.622199777321
C       51.070566675077    -32.585668594890    -89.356294850148
C       49.967930425730    -32.857375504442    -87.194254874566
H       46.139443650230    -24.031278649309    -95.350960521528
H       49.817831154929    -27.586605775154    -94.697515734506
H       49.088880972473    -25.247537206832    -94.271491533849
H       50.182082681141    -34.270134186105    -88.600702335774
H       45.892380122451    -25.769570634398    -97.068956635157
H       46.574115711509    -28.114188803119    -97.419530430384
H       50.261641096866    -29.135240896594    -99.114695012369
H       49.204387600786    -27.873891295826    -98.476323986432
H       47.252656110337    -28.966114204424    -99.621644558850
H       48.541784433104    -28.791257771841   -100.818612134985
H       48.264647953161    -30.349765313992   -100.023747137786
H       51.375684907033    -30.929218535690    -98.206559247019
H       51.827020939512    -33.297591806120    -98.704466202849
H       49.954441354760    -34.916971082652    -98.781475638391
H       47.673478230620    -34.175157009271    -98.210463777300
H       47.290722153077    -31.883672994374    -97.353249385615
H       50.698339928292    -30.939778786450    -95.358197082049
H       50.825989397477    -32.151682213659    -93.220448948215
H       46.947776518398    -30.810023287113    -92.209268145450
H       46.693513010101    -29.750209470848    -94.440392826003
H       47.400470330974    -31.694098290731    -90.294178737638
H       49.010531276835    -31.091042787335    -89.893138578779
H       48.358669789927    -34.060037100986    -89.748275838355
H       47.891135876283    -33.003450874954    -88.404128561629
H       52.018378183282    -33.003052514925    -89.009125545165
H       50.967752267678    -32.719342354509    -90.426249897142
H       51.071526345146    -31.520717958255    -89.099390621660
H       49.720648337936    -31.796949188133    -87.109824058489
H       49.280609296270    -33.472399338699    -86.615107422889
H       50.973654958103    -32.991964504127    -86.787472885293
