   59
Gau_xtb
C       48.234112360964    -28.005917655327    -96.084486324313
C       48.942836561964    -27.183975836180    -95.197114770457
C       48.549894713688    -25.872232831786    -94.957928503245
C       47.440795503876    -25.359241044870    -95.646091152766
O       47.083799388186    -24.055280801036    -95.470035450097
C       46.742426903621    -26.164679422831    -96.544600007423
C       47.136975712013    -27.477494497301    -96.749859432194
C       48.609187687954    -29.418576756983    -96.305101730189
C       49.002352356247    -29.808687395056    -97.528909488255
C       49.263538395042    -28.931363641923    -98.758224566717
C       48.270603993590    -29.261723825696    -99.889674638137
C       49.290890607010    -31.237544137877    -97.777398646137
C       50.579028649706    -31.660307018300    -98.138419922116
C       50.824552787373    -32.986416753728    -98.450631384583
C       49.768567991384    -33.895437699142    -98.494942217771
C       48.484787589003    -33.487846439811    -98.151115263029
C       48.259361042781    -32.188149096284    -97.719546441973
C       48.666340702067    -30.270184088266    -95.082153012185
C       49.834045096096    -30.961695988027    -94.703187184914
C       49.924819602628    -31.634865786469    -93.499641778306
C       48.837152574359    -31.660387048306    -92.612195804445
O       48.929316260991    -32.422456033145    -91.502129254563
C       47.690637701855    -30.949227877130    -92.968278080069
C       47.595169114985    -30.295124650060    -94.188626177886
C       48.446730136264    -31.972196330744    -90.227701822854
C       48.588960606499    -33.121538193451    -89.243675902043
N       49.950045104443    -33.283327635094    -88.634703348221
C       51.076603905512    -32.590333135225    -89.363323490653
C       49.959222055104    -32.898443907397    -87.181805993669
H       46.127140539344    -24.007933907629    -95.361880862314
H       49.820093815092    -27.588272315273    -94.688465383855
H       49.078956611759    -25.228983585497    -94.262638623211
H       50.172805140474    -34.291179507620    -88.642014648747
H       45.884034671850    -25.756689083471    -97.072602485419
H       46.568327551092    -28.109001202745    -97.433208091368
H       50.276523417937    -29.132045566364    -99.119131882688
H       49.206572530943    -27.873283935783    -98.480795216753
H       47.250888290210    -28.960953874052    -99.623830279007
H       48.542115583128    -28.773611270571   -100.831108585884
H       48.262338042995    -30.348149903876   -100.038361218837
H       51.389249638010    -30.928566785643    -98.196831816319
H       51.833751879996    -33.302902846503    -98.712953953460
H       49.950174024453    -34.925524863268    -98.790807269062
H       47.665667640058    -34.198989510985    -98.215791707684
H       47.278170202174    -31.874382083705    -97.369728116800
H       50.702401928584    -30.946922366964    -95.366238902628
H       50.835253468144    -32.163618774519    -93.227405088716
H       46.910740585733    -30.830044808554    -92.225123306591
H       46.692724600044    -29.740738380166    -94.447121456487
H       47.391547100332    -31.693323310676    -90.310636578822
H       49.010253476816    -31.097701707814    -89.881289117926
H       48.351792669432    -34.062534111166    -89.746236188208
H       47.898555166817    -32.990496384021    -88.410135332061
H       52.020740213452    -33.013471485675    -89.006476324974
H       50.974570468169    -32.736305315730    -90.432454737589
H       51.057593284144    -31.522929548414    -89.095834321404
H       49.710403987199    -31.831859710645    -87.130226229958
H       49.261449354892    -33.513677801670    -86.619609403214
H       50.972578678026    -33.005917495131    -86.793474995725
